@<TRIPOS>MOLECULE
L1
45 48 1 0 1
SMALL
USER_CHARGES
@<TRIPOS>CRYSIN
   74.7266    74.7266    74.7266   109.4712   109.4712   109.4712  1  1
@<TRIPOS>ATOM
       1 C1          17.7301    -1.4600   -30.3867 c3            1 L1         0.057300
       2 N1          18.5268    -1.3911   -29.1449 n             1 L1        -0.402400
       3 C2          17.9619    -1.5725   -27.8352 cz            1 L1         0.443600
       4 N2          16.8545    -2.1151   -27.5537 nv            1 L1        -0.469200
       5 N3          19.0023    -1.6219   -27.0233 nu            1 L1        -0.371200
       6 C3          20.3405    -1.2869   -27.6118 c3            1 L1         0.125300
       7 C4          21.2353    -2.5106   -27.4826 ca            1 L1        -0.154300
       8 C5          22.4627    -2.5456   -28.2248 ca            1 L1        -0.104000
       9 C6          23.3183    -3.6195   -28.2129 ca            1 L1        -0.118000
      10 C7          23.0173    -4.6397   -27.3552 ca            1 L1        -0.087000
      11 C8          21.8406    -4.7318   -26.6461 ca            1 L1        -0.118000
      12 C9          20.9158    -3.6624   -26.7025 ca            1 L1        -0.104000
      13 C10         20.8582     0.0198   -26.8877 ca            1 L1        -0.134300
      14 C11         21.9711    -0.0517   -25.9899 ca            1 L1        -0.096000
      15 C12         22.4462     1.0759   -25.2416 ca            1 L1        -0.114000
      16 C13         21.7720     2.2619   -25.5010 ca            1 L1        -0.083000
      17 C14         20.7639     2.4838   -26.4558 cp            1 L1        -0.031000
      18 C15         20.1243     3.7726   -26.6431 cp            1 L1        -0.020000
      19 C16         18.7379     3.9718   -26.7428 ca            1 L1        -0.238800
      20 C17         18.2722     5.2176   -27.0253 ca            1 L1         0.403200
      21 N4          19.0124     6.3023   -27.2325 nb            1 L1        -0.644000
      22 C18         20.3368     6.1514   -27.0364 ca            1 L1         0.403200
      23 C19         20.9363     4.8971   -26.7347 ca            1 L1        -0.238800
      24 C20         20.2526     1.2931   -27.0977 ca            1 L1        -0.102000
      25 C21         19.9006    -1.1053   -29.0405 c             1 L1         0.707500
      26 O1          20.4993    -0.6739   -30.0260 o             1 L1        -0.475500
      27 H1          18.4493    -1.5965   -31.2038 h1            1 L1         0.083700
      28 H2          17.1007    -2.3580   -30.4164 h1            1 L1         0.083700
      29 H3          17.2350    -0.5209   -30.6630 h1            1 L1         0.083700
      30 H4          16.8175    -2.6531   -26.6973 hn            1 L1         0.331700
      31 H5          18.9592    -1.9673   -26.0731 hn            1 L1         0.336700
      32 H6          22.6159    -1.6750   -28.8555 ha            1 L1         0.140500
      33 H7          24.2764    -3.6530   -28.7231 ha            1 L1         0.156000
      34 H8          23.7984    -5.3930   -27.3125 ha            1 L1         0.158000
      35 H9          21.6361    -5.6498   -26.1031 ha            1 L1         0.156000
      36 H10         19.9473    -3.7772   -26.2246 ha            1 L1         0.140500
      37 H11         22.3815    -1.0507   -25.8762 ha            1 L1         0.160000
      38 H12         23.3052     1.0799   -24.5772 ha            1 L1         0.159000
      39 H13         22.0376     3.1261   -24.8992 ha            1 L1         0.159000
      40 H14         18.1671     3.0482   -26.7215 ha            1 L1         0.143000
      41 H17         22.0151     4.7766   -26.7024 ha            1 L1         0.143000
      42 H18         19.3494     1.3961   -27.6919 ha            1 L1         0.131000
      43 H19         16.0019    -2.0676   -28.0968 hn            1 L1         0.331700
      44 H15         17.2040     5.4237   -26.9766 h4            1 L1         0.033600
      45 H16         21.0163     6.9878   -27.1927 h4            1 L1         0.033600
@<TRIPOS>BOND
       1       25       26 1
       2       22       23 1
       3       21       22 1
       4       20       21 1
       5       19       20 1
       6       18       19 1
       7       18       23 1
       8       17       18 1
       9       17       24 1
      10       16       17 1
      11       15       16 1
      12       14       15 1
      13       13       14 1
      14       13       24 1
      15       11       12 1
      16       10       11 1
      17        9       10 1
      18        8        9 1
      19        7        8 1
      20        7       12 1
      21        6        7 1
      22        6       13 1
      23        6       25 1
      24        5        6 1
      25        3        4 1
      26        3        5 1
      27        2        3 1
      28        2       25 1
      29        1        2 1
      30       24       42 1
      31       23       41 1
      32       22       45 1
      33       20       44 1
      34       19       40 1
      35       16       39 1
      36       15       38 1
      37       14       37 1
      38       12       36 1
      39       11       35 1
      40       10       34 1
      41        9       33 1
      42        8       32 1
      43        5       31 1
      44        4       30 1
      45        4       43 1
      46        1       27 1
      47        1       28 1
      48        1       29 1
@<TRIPOS>SUBSTRUCTURE
       1 L1              1 RESIDUE    0 **** ROOT      0
