@<TRIPOS>MOLECULE
R1
45 48 1 0 1
SMALL
USER_CHARGES
@<TRIPOS>CRYSIN
   74.6957    74.6957    74.6957   109.4712   109.4712   109.4712  1  1
@<TRIPOS>ATOM
       1 C1          17.7301    -1.4600   -30.3867 c3            1 R1         0.057300
       2 N1          18.5268    -1.3911   -29.1449 n             1 R1        -0.401400
       3 C2          17.9619    -1.5725   -27.8352 cz            1 R1         0.442600
       4 N2          16.8545    -2.1151   -27.5537 nv            1 R1        -0.468200
       5 N3          19.0023    -1.6219   -27.0233 nu            1 R1        -0.370200
       6 C3          20.3405    -1.2869   -27.6118 c3            1 R1         0.123300
       7 C4          21.2353    -2.5106   -27.4826 ca            1 R1        -0.154300
       8 C9          22.4627    -2.5456   -28.2248 ca            1 R1        -0.104500
       9 C8          23.3183    -3.6195   -28.2129 ca            1 R1        -0.117500
      10 C7          23.0173    -4.6397   -27.3552 ca            1 R1        -0.087000
      11 C6          21.8406    -4.7318   -26.6461 ca            1 R1        -0.117500
      12 C5          20.9158    -3.6624   -26.7025 ca            1 R1        -0.104500
      13 C10         20.8582     0.0198   -26.8877 ca            1 R1        -0.132300
      14 C11         21.9711    -0.0517   -25.9899 ca            1 R1        -0.096000
      15 C12         22.4462     1.0759   -25.2416 ca            1 R1        -0.112000
      16 C13         21.7720     2.2619   -25.5010 ca            1 R1        -0.085000
      17 C14         20.7639     2.4838   -26.4558 cp            1 R1        -0.024000
      18 C15         20.1243     3.7726   -26.6431 cp            1 R1        -0.149300
      19 C19         18.7379     3.9718   -26.7428 ca            1 R1        -0.129000
      20 C18         18.2722     5.2176   -27.0253 ca            1 R1         0.015600
      21 C17         19.0124     6.3023   -27.2325 ca            1 R1         0.384200
      22 N4          20.3368     6.1514   -27.0364 nb            1 R1        -0.626000
      23 C16         20.9363     4.8971   -26.7347 ca            1 R1         0.398200
      24 C20         20.2526     1.2931   -27.0977 ca            1 R1        -0.103000
      25 C21         19.9006    -1.1053   -29.0405 c             1 R1         0.707500
      26 O1          20.4993    -0.6739   -30.0260 o             1 R1        -0.474500
      27 H2          18.4493    -1.5965   -31.2038 h1            1 R1         0.084700
      28 H3          17.1007    -2.3580   -30.4164 h1            1 R1         0.084700
      29 H1          17.2350    -0.5209   -30.6630 h1            1 R1         0.084700
      30 H4          16.8175    -2.6531   -26.6973 hn            1 R1         0.332200
      31 H5          18.9592    -1.9673   -26.0731 hn            1 R1         0.335700
      32 H10         22.6159    -1.6750   -28.8555 ha            1 R1         0.140500
      33 H9          24.2764    -3.6530   -28.7231 ha            1 R1         0.157000
      34 H8          23.7984    -5.3930   -27.3125 ha            1 R1         0.158000
      35 H7          21.6361    -5.6498   -26.1031 ha            1 R1         0.157000
      36 H6          19.9473    -3.7772   -26.2246 ha            1 R1         0.140500
      37 H11         22.3815    -1.0507   -25.8762 ha            1 R1         0.161000
      38 H12         23.3052     1.0799   -24.5772 ha            1 R1         0.160000
      39 H13         22.0376     3.1261   -24.8992 ha            1 R1         0.159000
      40 H16         18.1671     3.0482   -26.7215 ha            1 R1         0.148000
      41 H14         22.0151     4.7766   -26.7024 h4            1 R1         0.035100
      42 H17         19.3494     1.3961   -27.6919 ha            1 R1         0.130000
      43 H18         16.0019    -2.0676   -28.0968 hn            1 R1         0.332200
      44 F1          16.3518     4.6209   -26.0952 f             1 R1        -0.120900
      45 H15         17.8156     6.7667   -26.8738 h4            1 R1         0.052100
@<TRIPOS>BOND
       1       25       26 1
       2       20       44 1
       3       20       19 1
       4       21       20 1
       5       22       21 1
       6       23       22 1
       7       18       23 1
       8       18       19 1
       9       17       18 1
      10       17       24 1
      11       16       17 1
      12       15       16 1
      13       14       15 1
      14       13       14 1
      15       13       24 1
      16        9        8 1
      17       10        9 1
      18       11       10 1
      19       12       11 1
      20        7       12 1
      21        7        8 1
      22        6        7 1
      23        6       13 1
      24        6       25 1
      25        5        6 1
      26        3        4 1
      27        3        5 1
      28        2        3 1
      29        2       25 1
      30        1        2 1
      31       24       42 1
      32       19       40 1
      33       21       45 1
      34       23       41 1
      35       16       39 1
      36       15       38 1
      37       14       37 1
      38        8       32 1
      39        9       33 1
      40       10       34 1
      41       11       35 1
      42       12       36 1
      43        5       31 1
      44        4       30 1
      45        4       43 1
      46        1       29 1
      47        1       27 1
      48        1       28 1
@<TRIPOS>SUBSTRUCTURE
       1 R1              1 RESIDUE    0 **** ROOT      0
