@<TRIPOS>MOLECULE
L1
   46    49     1     0     0
SMALL
No Charge or Current Charge


@<TRIPOS>ATOM
      1 C1          14.8620     4.8350     1.1620 C.3        1 L1        0.108700
      2 O1          15.5060     3.6190     0.8240 O.3        1 L1       -0.319900
      3 C2          15.5030     3.2550    -0.5040 C.ar       1 L1        0.017800
      4 C3          15.3200     4.1380    -1.5910 C.ar       1 L1        0.345200
      5 N1          15.3570     3.7400    -2.8750 N.ar       1 L1       -0.621000
      6 C4          15.5480     2.4300    -3.1300 C.ar       1 L1        0.379200
      7 C5          15.7090     1.4390    -2.1360 C.ar       1 L1       -0.152300
      8 C6          15.8420    -0.0010    -2.4610 C.ar       1 L1       -0.003000
      9 C7          16.3310    -0.4070    -3.7130 C.ar       1 L1       -0.087000
     10 C8          16.3920    -1.7640    -4.0580 C.ar       1 L1       -0.114000
     11 C9          15.9460    -2.7520    -3.1640 C.ar       1 L1       -0.125000
     12 C10         15.4720    -2.3990    -1.8780 C.ar       1 L1       -0.142300
     13 C11         14.9080    -3.4070    -0.8340 C.3        1 L1        0.107000
     14 C12         15.1740    -4.9290    -0.9310 C.3        1 L1       -0.180700
     15 C13         14.8730    -5.7780    -2.1410 C.3        1 L1       -0.094900
     16 C14         16.2960    -5.6350    -1.6620 C.3        1 L1       -0.094900
     17 N2          15.3120    -3.0250     0.5180 N.3        1 L1       -0.390100
     18 C15         14.2750    -2.7110     1.2950 C.cat      1 L1        0.465400
     19 N3          14.4150    -2.3940     2.5870 N.3        1 L1       -0.472200
     20 N4          13.1170    -2.7750     0.6180 N.am       1 L1       -0.410300
     21 C16         11.7850    -2.4930     1.1590 C.3        1 L1        0.057300
     22 C17         13.3890    -3.1880    -0.7200 C.2        1 L1        0.704500
     23 O2          12.5280    -3.3360    -1.5930 O.2        1 L1       -0.473500
     24 C18         15.4440    -1.0120    -1.5540 C.ar       1 L1       -0.107000
     25 C19         15.7030     1.8990    -0.8050 C.ar       1 L1       -0.113000
     26 H1          14.8380     4.9420     2.2470 H          1 L1        0.054700
     27 H2          15.3760     5.6990     0.7520 H          1 L1        0.054700
     28 H3          13.8380     4.8350     0.7950 H          1 L1        0.054700
     29 H4          15.1540     5.1940    -1.4430 H          1 L1        0.040100
     30 H5          15.5340     2.1700    -4.1770 H          1 L1        0.030100
     31 H6          16.6510     0.3210    -4.4420 H          1 L1        0.162000
     32 H7          16.7660    -2.0340    -5.0340 H          1 L1        0.155000
     33 H8          15.9800    -3.7600    -3.5290 H          1 L1        0.125000
     34 H9          14.9010    -5.4260    -0.0010 H          1 L1        0.099700
     35 H10         14.3800    -6.7350    -1.9830 H          1 L1        0.093700
     36 H11         14.5830    -5.2660    -3.0450 H          1 L1        0.093700
     37 H12         16.9750    -5.0800    -2.2920 H          1 L1        0.093700
     38 H13         16.7460    -6.4900    -1.1620 H          1 L1        0.093700
     39 H14         16.2890    -2.9970     0.8160 H          1 L1        0.337700
     40 H15         13.6580    -2.0900     3.1970 H          1 L1        0.331700
     41 H16         11.0200    -2.4650     0.3820 H          1 L1        0.084033
     42 H17         11.5050    -3.2430     1.8970 H          1 L1        0.084033
     43 H18         11.8050    -1.5230     1.6420 H          1 L1        0.084033
     44 H19         15.0490    -0.7090    -0.5980 H          1 L1        0.162000
     45 H20         15.8440     1.2080     0.0050 H          1 L1        0.150000
     46 H21         15.3520    -2.3780     2.9950 H          1 L1        0.331700
@<TRIPOS>BOND
     1     1     2 1   
     2     1    26 1   
     3     1    27 1   
     4     1    28 1   
     5     2     3 1   
     6     3     4 ar  
     7     3    25 ar  
     8     4     5 ar  
     9     4    29 1   
    10     5     6 ar  
    11     6     7 ar  
    12     6    30 1   
    13     7     8 1   
    14     7    25 ar  
    15     8     9 ar  
    16     8    24 ar  
    17     9    10 ar  
    18     9    31 1   
    19    10    11 ar  
    20    10    32 1   
    21    11    12 ar  
    22    11    33 1   
    23    12    13 1   
    24    12    24 ar  
    25    13    14 1   
    26    13    17 1   
    27    13    22 1   
    28    14    15 1   
    29    14    16 1   
    30    14    34 1   
    31    15    16 1   
    32    15    35 1   
    33    15    36 1   
    34    16    37 1   
    35    16    38 1   
    36    17    18 2   
    37    17    39 1   
    38    18    19 1   
    39    18    20 1   
    40    19    40 1   
    41    19    46 1   
    42    20    21 1   
    43    20    22 am  
    44    21    41 1   
    45    21    42 1   
    46    21    43 1   
    47    22    23 2   
    48    24    44 1   
    49    25    45 1   
@<TRIPOS>SUBSTRUCTURE
     1 L1          1 TEMP              0 ****  ****    0 ROOT
