@<TRIPOS>MOLECULE
R1
42 44 1 0 1
SMALL
USER_CHARGES
@<TRIPOS>CRYSIN
   74.6594    74.6594    74.6594   109.4712   109.4712   109.4712  1  1
@<TRIPOS>ATOM
       1 C17         17.8798    -2.0707   -29.3738 c3            1 R1         0.056300
       2 N3          18.6717    -2.1612   -28.1922 n             1 R1        -0.409300
       3 C16         18.1476    -2.3064   -26.8829 cz            1 R1         0.456400
       4 N2          16.8583    -2.2181   -26.5685 nv            1 R1        -0.465200
       5 N1          19.1984    -2.2693   -26.0239 nu            1 R1        -0.380100
       6 C3          20.4881    -1.9722   -26.6071 c3            1 R1         0.053000
       7 C4          21.1821    -0.7052   -26.0109 ca            1 R1        -0.148300
       8 C5          22.2251    -0.8079   -25.0855 ca            1 R1        -0.123000
       9 C6          22.8575     0.3813   -24.6610 ca            1 R1        -0.114000
      10 C7          22.2752     1.6555   -24.8902 ca            1 R1        -0.086000
      11 C8          21.1552     1.7575   -25.7148 cp            1 R1        -0.008000
      12 C9          20.5233     3.0624   -25.9924 cp            1 R1        -0.058000
      13 C10         21.3478     3.9617   -26.7198 ca            1 R1        -0.108000
      14 C11         20.7974     5.0931   -27.2737 ca            1 R1        -0.113000
      15 C12         19.4389     5.3715   -27.1938 ca            1 R1        -0.102000
      16 C13         18.5961     4.5951   -26.3216 ca            1 R1         0.018400
      17 Cl1         16.8372     4.9400   -26.2022 cl            1 R1        -0.077400
      18 C14         19.1689     3.3778   -25.8127 ca            1 R1        -0.116000
      19 C15         20.7277     0.6176   -26.4128 ca            1 R1        -0.101000
      20 C18         19.9929    -1.8359   -28.0496 c             1 R1         0.703500
      21 O1          20.6410    -1.4257   -28.9743 o             1 R1        -0.470500
      22 H18         17.1045    -2.8396   -29.4791 h1            1 R1         0.084700
      23 H16         17.3298    -1.1221   -29.4081 h1            1 R1         0.084700
      24 H17         18.5459    -2.0440   -30.2450 h1            1 R1         0.084700
      25 H15         16.1326    -2.1201   -27.2669 hn            1 R1         0.331700
      26 H14         19.0476    -2.3163   -25.0243 hn            1 R1         0.329700
      27 H6          22.6682    -1.7780   -24.8808 ha            1 R1         0.134000
      28 H7          23.7218     0.3642   -24.0037 ha            1 R1         0.156000
      29 H8          22.7506     2.4934   -24.3889 ha            1 R1         0.160000
      30 H9          22.3815     3.6534   -26.8460 ha            1 R1         0.143000
      31 H10         21.2958     5.7333   -27.9956 ha            1 R1         0.152000
      32 H11         18.9403     6.1238   -27.7979 ha            1 R1         0.161000
      33 H12         18.5678     2.5890   -25.3699 ha            1 R1         0.137000
      34 H13         19.9622     0.7142   -27.1770 ha            1 R1         0.151000
      35 H19         16.5471    -2.0332   -25.6235 hn            1 R1         0.331700
      36 C1          22.7143    -3.3562   -27.0771 c3            1 R1        -0.111100
      37 C2          21.2745    -3.4108   -26.3671 c3            1 R1        -0.066400
      38 H1          23.3158    -2.4660   -26.8554 hc            1 R1         0.063367
      39 H2          23.3668    -4.1820   -26.7681 hc            1 R1         0.063367
      40 H3          22.6551    -3.2872   -28.1704 hc            1 R1         0.063367
      41 H4          21.5230    -3.6811   -25.3333 hc            1 R1         0.068700
      42 H5          20.6117    -4.1478   -26.8370 hc            1 R1         0.068700
@<TRIPOS>BOND
       1       20       21 1
       2        2        1 1
       3        2       20 1
       4        3        4 1
       5        3        2 1
       6        5        3 1
       7       16       17 1
       8       16       18 1
       9       15       16 1
      10       14       15 1
      11       13       14 1
      12       12       13 1
      13       12       18 1
      14       11       12 1
      15       11       19 1
      16       10       11 1
      17        9       10 1
      18        8        9 1
      19        7        8 1
      20        7       19 1
      21        6        7 1
      22        6        5 1
      23        6       20 1
      24       37        6 1
      25       36       37 1
      26        1       23 1
      27        1       24 1
      28        1       22 1
      29        4       25 1
      30        4       35 1
      31        5       26 1
      32       19       34 1
      33       18       33 1
      34       15       32 1
      35       14       31 1
      36       13       30 1
      37       10       29 1
      38        9       28 1
      39        8       27 1
      40       37       41 1
      41       37       42 1
      42       36       38 1
      43       36       39 1
      44       36       40 1
@<TRIPOS>SUBSTRUCTURE
       1 R1              1 RESIDUE    0 **** ROOT      0
