@<TRIPOS>MOLECULE
L1
   42    45     1     0     0
SMALL
bcc


@<TRIPOS>ATOM
      1 C1          11.7880    -2.3630     1.0750 c3         1 L1        0.057300
      2 N1          13.1410    -2.6520     0.5830 n          1 L1       -0.407400
      3 C2          14.2740    -2.5820     1.2970 cz         1 L1        0.444600
      4 N2          14.3740    -2.3170     2.6050 nv         1 L1       -0.475200
      5 N3          15.3420    -2.8320     0.5430 nu         1 L1       -0.383200
      6 C3          15.0050    -3.1470    -0.8380 c3         1 L1        0.110000
      7 C4          15.5490    -2.0800    -1.8070 ca         1 L1       -0.141300
      8 C5          16.1590    -2.4450    -3.0300 ca         1 L1       -0.082000
      9 C6          16.5920    -1.4580    -3.9270 ca         1 L1       -0.117000
     10 C7          16.4000    -0.1000    -3.6280 ca         1 L1       -0.079000
     11 C8          15.8190     0.3100    -2.4090 cp         1 L1       -0.016000
     12 C9          15.5980     1.7480    -2.1180 cp         1 L1       -0.169300
     13 C10         15.3880     2.6890    -3.1520 ca         1 L1        0.418200
     14 N4          15.1190     3.9950    -2.9530 nb         1 L1       -0.638000
     15 C11         15.0500     4.4410    -1.6850 ca         1 L1        0.425200
     16 C12         15.2750     3.6150    -0.5720 ca         1 L1       -0.106900
     17 Cl1         15.1920     4.2580     1.0280 cl         1 L1       -0.057400
     18 C13         15.5590     2.2560    -0.8000 ca         1 L1       -0.085000
     19 C14         15.4170    -0.7000    -1.5020 ca         1 L1       -0.109000
     20 C15         15.5680    -4.5520    -1.1180 cx         1 L1       -0.180700
     21 C16         14.9250    -5.8310    -0.6180 cx         1 L1       -0.107900
     22 C17         14.9660    -5.5370    -2.0970 cx         1 L1       -0.107900
     23 C18         13.4680    -3.0280    -0.7570 c          1 L1        0.700500
     24 O1          12.6390    -3.1790    -1.6590 o          1 L1       -0.466500
     25 H1          11.0230    -2.8010     0.4330 h1         1 L1        0.083700
     26 H2          11.6520    -2.7550     2.0830 h1         1 L1        0.083700
     27 H3          11.6340    -1.2840     1.1020 h1         1 L1        0.083700
     28 H4          13.5960    -2.0540     3.2060 hn         1 L1        0.331700
     29 H5          16.3080    -2.8170     0.8780 hn         1 L1        0.344700
     30 H6          16.2990    -3.4770    -3.3190 ha         1 L1        0.153000
     31 H7          17.0550    -1.7420    -4.8630 ha         1 L1        0.160000
     32 H8          16.7060     0.6260    -4.3650 ha         1 L1        0.161000
     33 H9          15.3930     2.3810    -4.1860 h4         1 L1        0.036100
     34 H10         14.8130     5.4860    -1.5540 h4         1 L1        0.052100
     35 H11         15.7500     1.6090     0.0380 ha         1 L1        0.140000
     36 H12         14.9480    -0.4100    -0.5740 ha         1 L1        0.124000
     37 H13         16.6550    -4.5610    -1.0760 hc         1 L1        0.111700
     38 H14         15.5870    -6.6130    -0.2500 hc         1 L1        0.093950
     39 H15         13.9560    -5.7810    -0.1280 hc         1 L1        0.093950
     40 H16         14.0220    -5.2920    -2.5700 hc         1 L1        0.093950
     41 H17         15.6530    -6.1160    -2.7130 hc         1 L1        0.093950
     42 H18         15.2970    -2.3100     3.0400 hn         1 L1        0.331700
@<TRIPOS>BOND
     1     1     2 1   
     2     1    25 1   
     3     1    26 1   
     4     1    27 1   
     5     2     3 2   
     6     2    23 1   
     7     3     4 1   
     8     3     5 1   
     9     4    28 1   
    10     4    42 1   
    11     5     6 1   
    12     5    29 1   
    13     6     7 1   
    14     6    20 1   
    15     6    23 1   
    16     7     8 ar  
    17     7    19 ar  
    18     8     9 ar  
    19     8    30 1   
    20     9    10 ar  
    21     9    31 1   
    22    10    11 ar  
    23    10    32 1   
    24    11    12 1   
    25    11    19 ar  
    26    12    13 ar  
    27    12    18 ar  
    28    13    14 ar  
    29    13    33 1   
    30    14    15 ar  
    31    15    16 ar  
    32    15    34 1   
    33    16    17 1   
    34    16    18 ar  
    35    18    35 1   
    36    19    36 1   
    37    20    21 1   
    38    20    22 1   
    39    20    37 1   
    40    21    22 1   
    41    21    38 1   
    42    21    39 1   
    43    22    40 1   
    44    22    41 1   
    45    23    24 2   
@<TRIPOS>SUBSTRUCTURE
     1 L1          1 TEMP              0 ****  ****    0 ROOT
