@<TRIPOS>MOLECULE
L1
   46    49     1     0     0
SMALL
No Charge or Current Charge


@<TRIPOS>ATOM
      1 C1          11.7070    -2.3240     1.1520 C.3        1 L1        0.056300
      2 N1          13.0800    -2.5320     0.6750 N.am       1 L1       -0.402400
      3 C2          14.2030    -2.4300     1.3980 C.cat      1 L1        0.433600
      4 N2          14.2890    -2.2310     2.7110 N.3        1 L1       -0.465200
      5 N3          15.2910    -2.5900     0.6540 N.3        1 L1       -0.366200
      6 C3          14.9790    -2.9820    -0.7080 C.3        1 L1        0.057000
      7 C4          15.4750    -4.4510    -0.8100 C.3        1 L1       -0.034400
      8 C5          15.0160    -5.2710    -1.9950 C.3        1 L1       -0.161700
      9 C6          16.0510    -5.9030    -2.8810 C.3        1 L1       -0.112900
     10 C7          15.1860    -6.7770    -2.0220 C.3        1 L1       -0.112900
     11 C8          15.5530    -1.9670    -1.7160 C.ar       1 L1       -0.142300
     12 C9          16.2220    -2.3570    -2.8990 C.ar       1 L1       -0.122000
     13 C10         16.6510    -1.3900    -3.8250 C.ar       1 L1       -0.114000
     14 C11         16.4180    -0.0250    -3.5810 C.ar       1 L1       -0.087000
     15 C12         15.8040     0.4090    -2.3880 C.ar       1 L1       -0.009000
     16 C13         15.5510     1.8450    -2.1200 C.ar       1 L1       -0.057000
     17 C14         15.2560     2.7420    -3.1740 C.ar       1 L1       -0.109000
     18 C15         14.9250     4.0880    -2.9140 C.ar       1 L1       -0.113000
     19 C16         14.8970     4.5660    -1.5930 C.ar       1 L1       -0.103000
     20 C17         15.2240     3.7030    -0.5360 C.ar       1 L1        0.018400
     21 Cl1         15.2030     4.2950     1.0850 Cl         1 L1       -0.077400
     22 C18         15.5520     2.3580    -0.8010 C.ar       1 L1       -0.116000
     23 C19         15.3870    -0.5810    -1.4700 C.ar       1 L1       -0.100000
     24 C20         13.4410    -2.8720    -0.6620 C.2        1 L1        0.704500
     25 O1          12.6320    -3.0300    -1.5820 O.2        1 L1       -0.471500
     26 H1          11.6040    -2.6350     2.1920 H          1 L1        0.084367
     27 H2          11.4530    -1.2670     1.0810 H          1 L1        0.084367
     28 H3          10.9880    -2.8880     0.5560 H          1 L1        0.084367
     29 H4          13.5000    -2.0140     3.3170 H          1 L1        0.331700
     30 H5          16.2490    -2.5890     1.0090 H          1 L1        0.329700
     31 H6          15.1580    -4.9960     0.0810 H          1 L1        0.069700
     32 H7          16.5650    -4.4620    -0.7700 H          1 L1        0.069700
     33 H8          14.1140    -4.9160    -2.4840 H          1 L1        0.102700
     34 H9          15.8390    -5.7720    -3.9330 H          1 L1        0.081700
     35 H10         17.0970    -5.8250    -2.6000 H          1 L1        0.081700
     36 H11         15.6530    -7.2540    -1.1620 H          1 L1        0.081700
     37 H12         14.4210    -7.3680    -2.5220 H          1 L1        0.081700
     38 H13         16.4110    -3.3890    -3.1400 H          1 L1        0.132000
     39 H14         17.1460    -1.6960    -4.7370 H          1 L1        0.155000
     40 H15         16.7200     0.6930    -4.3260 H          1 L1        0.160000
     41 H16         15.2350     2.3870    -4.1940 H          1 L1        0.142000
     42 H17         14.6630     4.7530    -3.7240 H          1 L1        0.152000
     43 H18         14.6230     5.5910    -1.3890 H          1 L1        0.161000
     44 H19         15.7970     1.7150     0.0270 H          1 L1        0.137000
     45 H20         14.8790    -0.2620    -0.5740 H          1 L1        0.151000
     46 H21         15.2060    -2.2090     3.1540 H          1 L1        0.331700
@<TRIPOS>BOND
     1     1     2 1   
     2     1    26 1   
     3     1    27 1   
     4     1    28 1   
     5     2     3 2   
     6     2    24 am  
     7     3     4 1   
     8     3     5 1   
     9     4    29 1   
    10     4    46 1   
    11     5     6 1   
    12     5    30 1   
    13     6     7 1   
    14     6    11 1   
    15     6    24 1   
    16     7     8 1   
    17     7    31 1   
    18     7    32 1   
    19     8     9 1   
    20     8    10 1   
    21     8    33 1   
    22     9    10 1   
    23     9    34 1   
    24     9    35 1   
    25    10    36 1   
    26    10    37 1   
    27    11    12 ar  
    28    11    23 ar  
    29    12    13 ar  
    30    12    38 1   
    31    13    14 ar  
    32    13    39 1   
    33    14    15 ar  
    34    14    40 1   
    35    15    16 1   
    36    15    23 ar  
    37    16    17 ar  
    38    16    22 ar  
    39    17    18 ar  
    40    17    41 1   
    41    18    19 ar  
    42    18    42 1   
    43    19    20 ar  
    44    19    43 1   
    45    20    21 1   
    46    20    22 ar  
    47    22    44 1   
    48    23    45 1   
    49    24    25 2   
@<TRIPOS>SUBSTRUCTURE
     1 L1          1 TEMP              0 ****  ****    0 ROOT
