@<TRIPOS>MOLECULE
R1
42 45 1 0 1
SMALL
USER_CHARGES
@<TRIPOS>CRYSIN
   74.7022    74.7022    74.7022   109.4712   109.4712   109.4712  1  1
@<TRIPOS>ATOM
       1 C1          17.8798    -2.0707   -29.3738 c3            1 R1         0.057300
       2 N1          18.6717    -2.1612   -28.1922 n             1 R1        -0.407400
       3 C2          18.1476    -2.3064   -26.8829 cz            1 R1         0.444600
       4 N2          16.8583    -2.2181   -26.5685 nv            1 R1        -0.475200
       5 N3          19.1984    -2.2693   -26.0239 nu            1 R1        -0.383200
       6 C3          20.4881    -1.9722   -26.6071 c3            1 R1         0.110000
       7 C4          21.1821    -0.7052   -26.0109 ca            1 R1        -0.141300
       8 C5          22.2251    -0.8079   -25.0855 ca            1 R1        -0.082000
       9 C6          22.8575     0.3813   -24.6610 ca            1 R1        -0.117000
      10 C7          22.2752     1.6555   -24.8902 ca            1 R1        -0.079000
      11 C8          21.1552     1.7575   -25.7148 cp            1 R1        -0.016000
      12 C9          20.5233     3.0624   -25.9924 cp            1 R1        -0.169300
      13 C10         21.3478     3.9617   -26.7198 ca            1 R1         0.418200
      14 N4          20.7974     5.0931   -27.2737 nb            1 R1        -0.638000
      15 C11         19.4389     5.3715   -27.1938 ca            1 R1         0.425200
      16 C12         18.5961     4.5951   -26.3216 ca            1 R1        -0.106900
      17 Cl1         16.8372     4.9400   -26.2022 cl            1 R1        -0.057400
      18 C13         19.1689     3.3778   -25.8127 ca            1 R1        -0.085000
      19 C14         20.7277     0.6176   -26.4128 ca            1 R1        -0.109000
      20 C15         21.3478    -3.2532   -26.3933 cx            1 R1        -0.180700
      21 C17         21.2673    -4.1989   -25.2233 cx            1 R1        -0.107900
      22 C16         20.7579    -4.6682   -26.5339 cx            1 R1        -0.107900
      23 C18         19.9929    -1.8359   -28.0496 c             1 R1         0.700500
      24 O1          20.6410    -1.4257   -28.9743 o             1 R1        -0.466500
      25 H1          17.1045    -2.8396   -29.4791 h1            1 R1         0.083700
      26 H2          17.3298    -1.1221   -29.4081 h1            1 R1         0.083700
      27 H3          18.5459    -2.0440   -30.2450 h1            1 R1         0.083700
      28 H4          16.1326    -2.1201   -27.2669 hn            1 R1         0.331700
      29 H5          19.0476    -2.3163   -25.0243 hn            1 R1         0.344700
      30 H6          22.6682    -1.7780   -24.8808 ha            1 R1         0.153000
      31 H7          23.7218     0.3642   -24.0037 ha            1 R1         0.160000
      32 H8          22.7506     2.4934   -24.3889 ha            1 R1         0.161000
      33 H9          22.3815     3.6534   -26.8460 h4            1 R1         0.036100
      34 H10         18.9403     6.1238   -27.7979 h4            1 R1         0.052100
      35 H11         18.5678     2.5890   -25.3699 ha            1 R1         0.140000
      36 H12         19.9622     0.7142   -27.1770 ha            1 R1         0.124000
      37 H13         22.3902    -3.1515   -26.6843 hc            1 R1         0.111700
      38 H17         22.2273    -4.5872   -24.8930 hc            1 R1         0.093950
      39 H16         20.5729    -3.9308   -24.4311 hc            1 R1         0.093950
      40 H15         19.6904    -4.7713   -26.7111 hc            1 R1         0.093950
      41 H14         21.4230    -5.3712   -27.0289 hc            1 R1         0.093950
      42 H18         16.5471    -2.0332   -25.6235 hn            1 R1         0.331700
@<TRIPOS>BOND
       1       23       24 1
       2       22       21 1
       3       20       22 1
       4       20       21 1
       5       16       17 1
       6       16       18 1
       7       15       16 1
       8       14       15 1
       9       13       14 1
      10       12       13 1
      11       12       18 1
      12       11       12 1
      13       11       19 1
      14       10       11 1
      15        9       10 1
      16        8        9 1
      17        7        8 1
      18        7       19 1
      19        6        7 1
      20        6       20 1
      21        6       23 1
      22        5        6 1
      23        3        4 1
      24        3        5 1
      25        2        3 1
      26        2       23 1
      27        1        2 1
      28       21       39 1
      29       21       38 1
      30       22       41 1
      31       22       40 1
      32       20       37 1
      33       19       36 1
      34       18       35 1
      35       15       34 1
      36       13       33 1
      37       10       32 1
      38        9       31 1
      39        8       30 1
      40        5       29 1
      41        4       28 1
      42        4       42 1
      43        1       25 1
      44        1       26 1
      45        1       27 1
@<TRIPOS>SUBSTRUCTURE
       1 R1              1 RESIDUE    0 **** ROOT      0
