@<TRIPOS>MOLECULE
L1
47 50 1 0 1
SMALL
USER_CHARGES
@<TRIPOS>CRYSIN
   74.8406    74.8406    74.8406   109.4712   109.4712   109.4712  1  1
@<TRIPOS>ATOM
       1 C1          16.5462     6.0997   -26.0754 c3            1 L1         0.110700
       2 O1          17.4735     5.2479   -25.3542 os            1 L1        -0.328900
       3 C2          18.7775     5.1838   -25.7831 ca            1 L1         0.132100
       4 C3          19.4806     6.2837   -26.4713 ca            1 L1        -0.183000
       5 C4          20.8139     6.2690   -26.7644 ca            1 L1        -0.087000
       6 C5          21.4921     5.0708   -26.7389 ca            1 L1        -0.146000
       7 C6          20.8732     3.9075   -26.1347 cp            1 L1        -0.038000
       8 C7          21.5836     2.5995   -26.2254 cp            1 L1        -0.004000
       9 C8          22.9018     2.3698   -25.8011 ca            1 L1        -0.088000
      10 C9          23.5670     1.1883   -26.0058 ca            1 L1        -0.116000
      11 C10         22.8890     0.1795   -26.7310 ca            1 L1        -0.129000
      12 C11         21.4951     0.1703   -26.9419 ca            1 L1        -0.145300
      13 C12         20.6319    -0.9462   -27.4742 c3            1 L1         0.106000
      14 C13         21.4039    -2.3362   -27.3533 cx            1 L1        -0.178700
      15 C14         21.5691    -3.0005   -25.9821 cx            1 L1        -0.095400
      16 C15         20.8161    -3.6280   -27.1396 cx            1 L1        -0.095400
      17 N1          19.3355    -1.1227   -26.8357 nu            1 L1        -0.386100
      18 C16         18.2921    -0.7534   -27.5812 cz            1 L1         0.463400
      19 N2          17.0920    -1.2439   -27.3643 nv            1 L1        -0.471200
      20 N3          18.7039    -0.5634   -28.8879 n             1 L1        -0.409300
      21 C17         17.7832    -0.3553   -30.0176 c3            1 L1         0.057300
      22 C18         20.0881    -0.5865   -28.8887 c             1 L1         0.703500
      23 O2          20.7648    -0.4075   -29.8848 o             1 L1        -0.471500
      24 C19         20.8855     1.4139   -26.6930 ca            1 L1        -0.107000
      25 C20         19.5754     4.0189   -25.4753 ca            1 L1        -0.146000
      26 H1          16.7511     7.1466   -25.8197 h1            1 L1         0.051367
      27 H2          16.6272     5.9929   -27.1642 h1            1 L1         0.051367
      28 H3          15.5323     5.8332   -25.7524 h1            1 L1         0.051367
      29 H4          18.9008     7.1954   -26.5814 ha            1 L1         0.150000
      30 H6          22.5122     4.9231   -27.0811 ha            1 L1         0.139000
      31 H7          23.5358     3.1399   -25.3716 ha            1 L1         0.161000
      32 H8          24.5873     1.0949   -25.6459 ha            1 L1         0.153000
      33 H9          23.4229    -0.7369   -26.9643 ha            1 L1         0.125000
      34 H10         22.2760    -2.4866   -27.9845 hc            1 L1         0.098700
      35 H11         22.5602    -3.3883   -25.7607 hc            1 L1         0.093450
      36 H12         21.0183    -2.5694   -25.1500 hc            1 L1         0.093450
      37 H13         19.7425    -3.7221   -26.9984 hc            1 L1         0.093450
      38 H14         21.3662    -4.5088   -27.4609 hc            1 L1         0.093450
      39 H15         19.2921    -1.4478   -25.8783 hn            1 L1         0.334700
      40 H16         16.2932    -0.8682   -27.8593 hn            1 L1         0.330700
      41 H17         17.9650     0.6479   -30.4227 h1            1 L1         0.083700
      42 H18         16.7312    -0.5377   -29.7660 h1            1 L1         0.083700
      43 H19         18.0732    -1.0008   -30.8558 h1            1 L1         0.083700
      44 H20         19.8436     1.5106   -26.9836 ha            1 L1         0.162000
      45 H21         19.1126     3.1550   -25.0074 ha            1 L1         0.143000
      46 H22         16.8213    -1.3224   -26.3923 hn            1 L1         0.330700
      47 H5          21.2427     7.1882   -27.1524 ha            1 L1         0.146000
@<TRIPOS>BOND
       1       22       23 1
       2       20       21 1
       3       20       22 1
       4       18       19 1
       5       18       20 1
       6       17       18 1
       7       15       16 1
       8       14       15 1
       9       14       16 1
      10       13       14 1
      11       13       17 1
      12       13       22 1
      13       12       13 1
      14       12       24 1
      15       11       12 1
      16       10       11 1
      17        9       10 1
      18        8        9 1
      19        8       24 1
      20        7        8 1
      21        7       25 1
      22        6        7 1
      23        5        6 1
      24        4        5 1
      25        3        4 1
      26        3       25 1
      27        2        3 1
      28        1        2 1
      29       25       45 1
      30       24       44 1
      31       21       41 1
      32       21       42 1
      33       21       43 1
      34       19       40 1
      35       19       46 1
      36       17       39 1
      37       16       37 1
      38       16       38 1
      39       15       35 1
      40       15       36 1
      41       14       34 1
      42       11       33 1
      43       10       32 1
      44        9       31 1
      45        6       30 1
      46        5       47 1
      47        4       29 1
      48        1       26 1
      49        1       27 1
      50        1       28 1
@<TRIPOS>SUBSTRUCTURE
       1 L1              1 RESIDUE    0 **** ROOT      0
