@<TRIPOS>MOLECULE
R1
46 49 1 0 1
SMALL
USER_CHARGES
@<TRIPOS>CRYSIN
   74.7114    74.7114    74.7114   109.4712   109.4712   109.4712  1  1
@<TRIPOS>ATOM
       1 C1          16.5462     6.0997   -26.0754 c3            1 R1         0.108700
       2 O1          17.4735     5.2479   -25.3542 os            1 R1        -0.319900
       3 C2          18.7775     5.1838   -25.7831 ca            1 R1         0.017800
       4 C3          19.4806     6.2837   -26.4713 ca            1 R1         0.345200
       5 N1          20.8139     6.2690   -26.7644 nb            1 R1        -0.621000
       6 C4          21.4921     5.0708   -26.7389 ca            1 R1         0.379200
       7 C5          20.8732     3.9075   -26.1347 cp            1 R1        -0.152300
       8 C6          21.5836     2.5995   -26.2254 cp            1 R1        -0.003000
       9 C7          22.9018     2.3698   -25.8011 ca            1 R1        -0.087000
      10 C8          23.5670     1.1883   -26.0058 ca            1 R1        -0.114000
      11 C9          22.8890     0.1795   -26.7310 ca            1 R1        -0.125000
      12 C10         21.4951     0.1703   -26.9419 ca            1 R1        -0.142300
      13 C11         20.6319    -0.9462   -27.4742 c3            1 R1         0.107000
      14 C12         21.4039    -2.3362   -27.3533 cx            1 R1        -0.180700
      15 C13         21.5691    -3.0005   -25.9821 cx            1 R1        -0.094900
      16 C14         20.8161    -3.6280   -27.1396 cx            1 R1        -0.094900
      17 N2          19.3355    -1.1227   -26.8357 nu            1 R1        -0.390100
      18 C15         18.2921    -0.7534   -27.5812 cz            1 R1         0.465400
      19 N3          17.0920    -1.2439   -27.3643 nv            1 R1        -0.472200
      20 N4          18.7039    -0.5634   -28.8879 n             1 R1        -0.410300
      21 C16         17.7832    -0.3553   -30.0176 c3            1 R1         0.057300
      22 C17         20.0881    -0.5865   -28.8887 c             1 R1         0.704500
      23 O2          20.7648    -0.4075   -29.8848 o             1 R1        -0.473500
      24 C18         20.8855     1.4139   -26.6930 ca            1 R1        -0.107000
      25 C19         19.5754     4.0189   -25.4753 ca            1 R1        -0.113000
      26 H1          16.7511     7.1466   -25.8197 h1            1 R1         0.054700
      27 H2          16.6272     5.9929   -27.1642 h1            1 R1         0.054700
      28 H3          15.5323     5.8332   -25.7524 h1            1 R1         0.054700
      29 H4          18.9008     7.1954   -26.5814 h4            1 R1         0.040100
      30 H5          22.5122     4.9231   -27.0811 h4            1 R1         0.030100
      31 H6          23.5358     3.1399   -25.3716 ha            1 R1         0.162000
      32 H7          24.5873     1.0949   -25.6459 ha            1 R1         0.155000
      33 H8          23.4229    -0.7369   -26.9643 ha            1 R1         0.125000
      34 H9          22.2760    -2.4866   -27.9845 hc            1 R1         0.099700
      35 H10         22.5602    -3.3883   -25.7607 hc            1 R1         0.093700
      36 H11         21.0183    -2.5694   -25.1500 hc            1 R1         0.093700
      37 H12         19.7425    -3.7221   -26.9984 hc            1 R1         0.093700
      38 H13         21.3662    -4.5088   -27.4609 hc            1 R1         0.093700
      39 H14         19.2921    -1.4478   -25.8783 hn            1 R1         0.337700
      40 H15         16.2932    -0.8682   -27.8593 hn            1 R1         0.331700
      41 H18         17.9650     0.6479   -30.4227 h1            1 R1         0.084033
      42 H17         16.7312    -0.5377   -29.7660 h1            1 R1         0.084033
      43 H16         18.0732    -1.0008   -30.8558 h1            1 R1         0.084033
      44 H19         19.8436     1.5106   -26.9836 ha            1 R1         0.162000
      45 H20         19.1126     3.1550   -25.0074 ha            1 R1         0.150000
      46 H21         16.8213    -1.3224   -26.3923 hn            1 R1         0.331700
@<TRIPOS>BOND
       1       22       23 1
       2       20       21 1
       3       20       22 1
       4       18       19 1
       5       18       20 1
       6       17       18 1
       7       15       16 1
       8       14       15 1
       9       14       16 1
      10       13       14 1
      11       13       17 1
      12       13       22 1
      13       12       13 1
      14       12       24 1
      15       11       12 1
      16       10       11 1
      17        9       10 1
      18        8        9 1
      19        8       24 1
      20        7        8 1
      21        7       25 1
      22        6        7 1
      23        5        6 1
      24        4        5 1
      25        3        4 1
      26        3       25 1
      27        2        3 1
      28        1        2 1
      29       25       45 1
      30       24       44 1
      31       21       43 1
      32       21       42 1
      33       21       41 1
      34       19       40 1
      35       19       46 1
      36       17       39 1
      37       16       37 1
      38       16       38 1
      39       15       35 1
      40       15       36 1
      41       14       34 1
      42       11       33 1
      43       10       32 1
      44        9       31 1
      45        6       30 1
      46        4       29 1
      47        1       26 1
      48        1       27 1
      49        1       28 1
@<TRIPOS>SUBSTRUCTURE
       1 R1              1 RESIDUE    0 **** ROOT      0
