@<TRIPOS>MOLECULE
R1
44 47 1 0 1
SMALL
USER_CHARGES
@<TRIPOS>CRYSIN
   74.7722    74.7722    74.7722   109.4712   109.4712   109.4712  1  1
@<TRIPOS>ATOM
       1 N4          19.2396     3.2182   -25.9570 nb            1 R1        -0.621000
       2 C17         19.9952     4.1127   -26.7707 ca            1 R1         0.295900
       3 C18         21.2656     3.8336   -27.0991 ca            1 R1         0.293900
       4 N5          21.7949     2.6630   -26.7079 nb            1 R1        -0.617000
       5 C15         21.0788     1.6541   -25.9416 cp            1 R1         0.325500
       6 C14         21.6883     0.2687   -25.6517 cp            1 R1        -0.129500
       7 C13         22.8785     0.1944   -24.9375 ca            1 R1        -0.059000
       8 C12         23.5009    -1.0324   -24.6824 ca            1 R1        -0.119000
       9 C11         22.8374    -2.2106   -25.1340 ca            1 R1        -0.092000
      10 C10         21.5892    -2.1786   -25.7276 ca            1 R1        -0.138300
      11 C3          20.9554    -3.4613   -26.2564 c3            1 R1         0.125300
      12 C4          21.7012    -4.7737   -25.8499 ca            1 R1        -0.154300
      13 C5          22.7023    -5.3187   -26.6926 ca            1 R1        -0.104500
      14 C6          23.4341    -6.4854   -26.2857 ca            1 R1        -0.117500
      15 C7          23.0942    -7.1014   -25.0759 ca            1 R1        -0.087000
      16 C8          22.2205    -6.4770   -24.1807 ca            1 R1        -0.117500
      17 C9          21.4684    -5.3253   -24.5826 ca            1 R1        -0.104500
      18 N3          19.5824    -3.5671   -25.8159 nu            1 R1        -0.371200
      19 C2          18.6960    -3.4031   -26.8028 cz            1 R1         0.442600
      20 N2          17.3658    -3.5522   -26.7418 nv            1 R1        -0.469200
      21 N1          19.2966    -3.2053   -28.0405 n             1 R1        -0.401400
      22 C1          18.6750    -2.5380   -29.2374 c3            1 R1         0.057300
      23 C20         20.6499    -3.3091   -27.7895 c             1 R1         0.707500
      24 O1          21.5257    -3.1564   -28.6208 o             1 R1        -0.475500
      25 C19         21.0425    -0.9446   -26.1026 ca            1 R1        -0.101000
      26 C16         19.8305     2.0348   -25.5527 ca            1 R1         0.285900
      27 H15         19.6513     5.0354   -27.2357 h4            1 R1         0.049100
      28 H13         23.3221     1.1065   -24.5495 ha            1 R1         0.170000
      29 H12         24.4169    -1.1700   -24.1155 ha            1 R1         0.160000
      30 H11         23.4094    -3.1231   -24.9938 ha            1 R1         0.160000
      31 H6          22.9813    -4.9836   -27.6872 ha            1 R1         0.140500
      32 H7          24.0900    -6.8979   -27.0466 ha            1 R1         0.156000
      33 H8          23.6105    -8.0152   -24.7972 ha            1 R1         0.158000
      34 H9          22.0117    -7.0292   -23.2691 ha            1 R1         0.156000
      35 H10         20.6753    -4.9506   -23.9423 ha            1 R1         0.140500
      36 H5          19.2178    -3.7198   -24.8843 hn            1 R1         0.336700
      37 H18         16.7999    -3.4906   -27.5786 hn            1 R1         0.331700
      38 H1          18.7434    -1.4503   -29.1122 h1            1 R1         0.083700
      39 H2          19.0962    -2.9331   -30.1701 h1            1 R1         0.083700
      40 H3          17.6112    -2.8060   -29.2425 h1            1 R1         0.083700
      41 H17         20.2025    -0.8371   -26.7825 ha            1 R1         0.129000
      42 H14         19.2236     1.3449   -24.9739 h4            1 R1         0.026100
      43 H4          16.9437    -3.3530   -25.8439 hn            1 R1         0.331700
      44 H16         20.1457     4.7212   -25.3200 h4            1 R1         0.048100
@<TRIPOS>BOND
       1       23       24 1
       2        3        4 1
       3        2        3 1
       4        1        2 1
       5       26        1 1
       6        5       26 1
       7        5        4 1
       8        6        5 1
       9        6       25 1
      10        7        6 1
      11        8        7 1
      12        9        8 1
      13       10        9 1
      14       10       25 1
      15       16       17 1
      16       15       16 1
      17       14       15 1
      18       13       14 1
      19       12       13 1
      20       12       17 1
      21       11       12 1
      22       11       10 1
      23       11       23 1
      24       18       11 1
      25       19       20 1
      26       19       18 1
      27       21       19 1
      28       21       23 1
      29       22       21 1
      30       25       41 1
      31        3       44 1
      32        2       27 1
      33       26       42 1
      34        7       28 1
      35        8       29 1
      36        9       30 1
      37       17       35 1
      38       16       34 1
      39       15       33 1
      40       14       32 1
      41       13       31 1
      42       18       36 1
      43       20       43 1
      44       20       37 1
      45       22       38 1
      46       22       39 1
      47       22       40 1
@<TRIPOS>SUBSTRUCTURE
       1 R1              1 RESIDUE    0 **** ROOT      0
