@<TRIPOS>MOLECULE
L1
   49    52     1     0     0
SMALL
No Charge or Current Charge


@<TRIPOS>ATOM
      1 C1          11.8160    -1.9870     1.1350 C.3        1 L1        0.057300
      2 N1          13.0890    -2.4270     0.5570 N.am       1 L1       -0.405400
      3 C2          14.2590    -2.5970     1.1960 C.cat      1 L1        0.433600
      4 N2          14.4700    -2.4090     2.5070 N.3        1 L1       -0.469200
      5 N3          15.2260    -2.9960     0.3600 N.3        1 L1       -0.361200
      6 C3          14.7420    -3.1090    -1.0220 C.3        1 L1        0.064000
      7 C4          15.3910    -2.0430    -1.9330 C.ar       1 L1       -0.132300
      8 C5          15.9760    -2.3790    -3.1780 C.ar       1 L1       -0.092000
      9 C6          16.4920    -1.3790    -4.0130 C.ar       1 L1       -0.119000
     10 C7          16.3750    -0.0270    -3.6530 C.ar       1 L1       -0.081000
     11 C8          15.8020     0.3580    -2.4240 C.ar       1 L1       -0.017000
     12 C9          15.6000     1.7920    -2.0990 C.ar       1 L1       -0.053000
     13 C10         15.3380     2.7310    -3.1260 C.ar       1 L1       -0.109000
     14 C11         15.0420     4.0770    -2.8330 C.ar       1 L1       -0.112000
     15 C12         15.0160     4.5160    -1.5000 C.ar       1 L1       -0.105000
     16 C13         15.3140     3.6150    -0.4660 C.ar       1 L1        0.015400
     17 Cl1         15.3090     4.1780     1.1650 Cl         1 L1       -0.081400
     18 C14         15.6020     2.2680    -0.7660 C.ar       1 L1       -0.122000
     19 C15         15.3590    -0.6710    -1.5580 C.ar       1 L1       -0.106000
     20 C16         14.8190    -4.5910    -1.5370 C.3        1 L1       -0.078700
     21 C17         16.1990    -5.2610    -1.5320 C.3        1 L1       -0.092400
     22 C18         15.9160    -6.7440    -1.7750 C.3        1 L1       -0.088900
     23 C19         14.5200    -7.0040    -1.1990 C.3        1 L1       -0.088900
     24 C20         13.9600    -5.6350    -0.7930 C.3        1 L1       -0.092400
     25 C21         13.2680    -2.7200    -0.8250 C.2        1 L1        0.698500
     26 O1          12.3710    -2.6830    -1.6740 O.2        1 L1       -0.464500
     27 H1          11.7130    -0.9110     1.0000 H          1 L1        0.083033
     28 H2          10.9700    -2.4710     0.6460 H          1 L1        0.083033
     29 H3          11.7670    -2.2190     2.1980 H          1 L1        0.083033
     30 H4          13.7670    -2.0580     3.1560 H          1 L1        0.331200
     31 H5          16.2090    -3.0730     0.6190 H          1 L1        0.339700
     32 H6          16.0310    -3.3900    -3.5470 H          1 L1        0.147000
     33 H7          16.9450    -1.6510    -4.9560 H          1 L1        0.157000
     34 H8          16.7180     0.7190    -4.3520 H          1 L1        0.159000
     35 H9          15.3100     2.4110    -4.1570 H          1 L1        0.145000
     36 H10         14.8050     4.7700    -3.6260 H          1 L1        0.153000
     37 H11         14.7670     5.5420    -1.2680 H          1 L1        0.161000
     38 H12         15.8210     1.5920     0.0440 H          1 L1        0.136000
     39 H13         14.9090    -0.3860    -0.6190 H          1 L1        0.125000
     40 H14         14.4540    -4.6000    -2.5660 H          1 L1        0.102700
     41 H15         16.8690    -4.8720    -2.2910 H          1 L1        0.063450
     42 H16         16.6840    -5.1340    -0.5620 H          1 L1        0.063450
     43 H17         15.9010    -6.9410    -2.8480 H          1 L1        0.053450
     44 H18         16.6780    -7.3840    -1.3290 H          1 L1        0.053450
     45 H19         13.8880    -7.4730    -1.9550 H          1 L1        0.053450
     46 H20         14.5570    -7.6810    -0.3440 H          1 L1        0.053450
     47 H21         14.0660    -5.5160     0.2870 H          1 L1        0.063450
     48 H22         12.8980    -5.5580    -1.0320 H          1 L1        0.063450
     49 H23         15.4200    -2.4950     2.8760 H          1 L1        0.331200
@<TRIPOS>BOND
     1     1     2 1   
     2     1    27 1   
     3     1    28 1   
     4     1    29 1   
     5     2     3 2   
     6     2    25 am  
     7     3     4 1   
     8     3     5 1   
     9     4    30 1   
    10     4    49 1   
    11     5     6 1   
    12     5    31 1   
    13     6     7 1   
    14     6    20 1   
    15     6    25 1   
    16     7     8 ar  
    17     7    19 ar  
    18     8     9 ar  
    19     8    32 1   
    20     9    10 ar  
    21     9    33 1   
    22    10    11 ar  
    23    10    34 1   
    24    11    12 1   
    25    11    19 ar  
    26    12    13 ar  
    27    12    18 ar  
    28    13    14 ar  
    29    13    35 1   
    30    14    15 ar  
    31    14    36 1   
    32    15    16 ar  
    33    15    37 1   
    34    16    17 1   
    35    16    18 ar  
    36    18    38 1   
    37    19    39 1   
    38    20    21 1   
    39    20    24 1   
    40    20    40 1   
    41    21    22 1   
    42    21    41 1   
    43    21    42 1   
    44    22    23 1   
    45    22    43 1   
    46    22    44 1   
    47    23    24 1   
    48    23    45 1   
    49    23    46 1   
    50    24    47 1   
    51    24    48 1   
    52    25    26 2   
@<TRIPOS>SUBSTRUCTURE
     1 L1          1 TEMP              0 ****  ****    0 ROOT
