@<TRIPOS>MOLECULE
L1
52 55 1 0 1
SMALL
USER_CHARGES
@<TRIPOS>CRYSIN
   74.7704    74.7704    74.7704   109.4712   109.4712   109.4712  1  1
@<TRIPOS>ATOM
       1 C1          18.0767    -2.1268   -29.5133 c3            1 L1         0.057300
       2 N1          18.8820    -2.5194   -28.4093 n             1 L1        -0.403400
       3 C2          18.4647    -2.7926   -27.1287 cz            1 L1         0.437600
       4 N2          17.2356    -2.8733   -26.7480 nv            1 L1        -0.472200
       5 N3          19.5619    -2.9798   -26.3560 nu            1 L1        -0.370200
       6 C3          20.8377    -2.8474   -27.0119 c3            1 L1         0.068000
       7 C4          21.5708    -1.6097   -26.5386 ca            1 L1        -0.145300
       8 C5          22.9271    -1.6467   -26.0600 ca            1 L1        -0.086000
       9 C6          23.6504    -0.5154   -25.6516 ca            1 L1        -0.117000
      10 C7          23.0328     0.7439   -25.8407 ca            1 L1        -0.081000
      11 C8          21.6883     0.8869   -26.2040 cp            1 L1        -0.014000
      12 C9          20.9488     2.1587   -26.3100 cp            1 L1        -0.054000
      13 C10         21.5912     3.3646   -26.6670 ca            1 L1        -0.109000
      14 C11         20.8537     4.5906   -26.7299 ca            1 L1        -0.111000
      15 C12         19.4911     4.5744   -26.4314 ca            1 L1        -0.104000
      16 C13         18.8613     3.4321   -25.9557 ca            1 L1         0.016400
      17 C14         19.6364     2.2463   -25.9494 ca            1 L1        -0.123000
      18 C15         20.9541    -0.3263   -26.4394 ca            1 L1        -0.123000
      19 C22         20.2806    -2.5055   -28.4274 c             1 L1         0.701500
      20 O1          20.9109    -2.2868   -29.4461 o             1 L1        -0.468500
      21 H1          17.4501    -3.0126   -29.6752 h1            1 L1         0.082700
      22 H2          17.5113    -1.2116   -29.2984 h1            1 L1         0.082700
      23 H3          18.6350    -1.8293   -30.4095 h1            1 L1         0.082700
      24 H4          16.3818    -2.7417   -27.2751 hn            1 L1         0.330700
      25 H5          19.4956    -3.4090   -25.4419 hn            1 L1         0.340700
      26 H6          23.5024    -2.5601   -25.9410 ha            1 L1         0.151000
      27 H7          24.6825    -0.5568   -25.3164 ha            1 L1         0.159000
      28 H8          23.6242     1.6015   -25.5338 ha            1 L1         0.160000
      29 H9          22.6114     3.3892   -27.0384 ha            1 L1         0.145000
      30 H11         18.8539     5.4533   -26.4021 ha            1 L1         0.162000
      31 H12         19.1439     1.3956   -25.4877 ha            1 L1         0.133000
      32 H13         19.9099    -0.3842   -26.7321 ha            1 L1         0.120000
      33 H25         16.9911    -2.9230   -25.7673 hn            1 L1         0.330700
      34 Cl1         17.3221     3.4205   -25.1807 cl            1 L1        -0.080400
      35 C16         21.5569    -4.2709   -27.0146 c3            1 L1        -0.063700
      36 C17         21.8968    -4.8110   -25.5465 c3            1 L1        -0.079900
      37 C18         22.7238    -6.1202   -25.5277 c3            1 L1        -0.078900
      38 C19         22.1350    -7.2531   -26.4211 c3            1 L1        -0.083400
      39 C20         21.6959    -6.7418   -27.8096 c3            1 L1        -0.078900
      40 C21         20.8810    -5.4595   -27.8131 c3            1 L1        -0.079900
      41 H10         21.3828     5.4659   -27.0951 ha            1 L1         0.153000
      42 H14         22.4671    -4.0882   -27.5990 hc            1 L1         0.095700
      43 H15         22.3312    -3.9989   -24.9505 hc            1 L1         0.044200
      44 H16         20.9330    -5.1551   -25.1512 hc            1 L1         0.044200
      45 H17         22.9851    -6.4885   -24.5279 hc            1 L1         0.056700
      46 H18         23.7092    -5.8362   -25.9172 hc            1 L1         0.056700
      47 H19         22.8218    -8.1078   -26.4582 hc            1 L1         0.054700
      48 H20         21.2364    -7.5620   -25.8729 hc            1 L1         0.054700
      49 H21         22.6081    -6.4785   -28.3590 hc            1 L1         0.056700
      50 H22         21.2082    -7.5138   -28.4176 hc            1 L1         0.056700
      51 H23         19.8709    -5.6920   -27.4541 hc            1 L1         0.044200
      52 H24         20.8222    -5.1124   -28.8521 hc            1 L1         0.044200
@<TRIPOS>BOND
       1       19       20 1
       2       39       40 1
       3       38       39 1
       4       37       38 1
       5       36       37 1
       6       35       36 1
       7       35       40 1
       8       16       34 1
       9       16       17 1
      10       15       16 1
      11       14       15 1
      12       13       14 1
      13       12       13 1
      14       12       17 1
      15       11       12 1
      16       11       18 1
      17       10       11 1
      18        9       10 1
      19        8        9 1
      20        7        8 1
      21        7       18 1
      22        6        7 1
      23        6       35 1
      24        6       19 1
      25        5        6 1
      26        3        4 1
      27        3        5 1
      28        2        3 1
      29        2       19 1
      30        1        2 1
      31       40       51 1
      32       40       52 1
      33       39       49 1
      34       39       50 1
      35       38       47 1
      36       38       48 1
      37       37       45 1
      38       37       46 1
      39       36       43 1
      40       36       44 1
      41       35       42 1
      42       18       32 1
      43       17       31 1
      44       15       30 1
      45       14       41 1
      46       13       29 1
      47       10       28 1
      48        9       27 1
      49        8       26 1
      50        5       25 1
      51        4       24 1
      52        4       33 1
      53        1       21 1
      54        1       22 1
      55        1       23 1
@<TRIPOS>SUBSTRUCTURE
       1 L1              1 RESIDUE    0 **** ROOT      0
