@<TRIPOS>MOLECULE
R1
45 48 1 0 1
SMALL
USER_CHARGES
@<TRIPOS>CRYSIN
   74.6401    74.6401    74.6401   109.4712   109.4712   109.4712  1  1
@<TRIPOS>ATOM
       1 C16         18.0767    -2.1268   -29.5133 c3            1 R1         0.058300
       2 N4          18.8820    -2.5194   -28.4093 n             1 R1        -0.411300
       3 C15         18.4647    -2.7926   -27.1287 cz            1 R1         0.467400
       4 N3          17.2356    -2.8733   -26.7480 nv            1 R1        -0.472200
       5 N2          19.5619    -2.9798   -26.3560 nu            1 R1        -0.392100
       6 C11         20.8377    -2.8474   -27.0119 c3            1 R1         0.109000
       7 C10         21.5708    -1.6097   -26.5386 ca            1 R1        -0.140300
       8 C9          22.9271    -1.6467   -26.0600 ca            1 R1        -0.126000
       9 C8          23.6504    -0.5154   -25.6516 ca            1 R1        -0.113000
      10 C7          23.0328     0.7439   -25.8407 ca            1 R1        -0.090000
      11 C6          21.6883     0.8869   -26.2040 cp            1 R1         0.001000
      12 C5          20.9488     2.1587   -26.3100 cp            1 R1        -0.184300
      13 C4          21.5912     3.3646   -26.6670 ca            1 R1         0.412200
      14 N1          20.8537     4.5906   -26.7299 nb            1 R1        -0.647000
      15 C3          19.4911     4.5744   -26.4314 ca            1 R1         0.414200
      16 C2          18.8613     3.4321   -25.9557 ca            1 R1        -0.182600
      17 C19         19.6364     2.2463   -25.9494 ca            1 R1        -0.081000
      18 C18         20.9541    -0.3263   -26.4394 ca            1 R1        -0.110000
      19 C17         20.2806    -2.5055   -28.4274 c             1 R1         0.705500
      20 O1          20.9109    -2.2868   -29.4461 o             1 R1        -0.476500
      21 H16         17.4501    -3.0126   -29.6752 h1            1 R1         0.083700
      22 H17         17.5113    -1.2116   -29.2984 h1            1 R1         0.083700
      23 H18         18.6350    -1.8293   -30.4095 h1            1 R1         0.083700
      24 H15         16.3818    -2.7417   -27.2751 hn            1 R1         0.331700
      25 H14         19.4956    -3.4090   -25.4419 hn            1 R1         0.339700
      26 H8          23.5024    -2.5601   -25.9410 ha            1 R1         0.124000
      27 H7          24.6825    -0.5568   -25.3164 ha            1 R1         0.155000
      28 H6          23.6242     1.6015   -25.5338 ha            1 R1         0.161000
      29 H5          22.6114     3.3892   -27.0384 h4            1 R1         0.027100
      30 H4          18.8539     5.4533   -26.4021 h4            1 R1         0.037100
      31 H20         19.1439     1.3956   -25.4877 ha            1 R1         0.135000
      32 H19         19.9099    -0.3842   -26.7321 ha            1 R1         0.161000
      33 H21         16.9911    -2.9230   -25.7673 hn            1 R1         0.331700
      34 C1          17.3920     3.6905   -25.4189 c3            1 R1        -0.055800
      35 C12         21.3859    -4.1691   -26.7061 cx            1 R1        -0.182700
      36 C13         21.3854    -4.8843   -25.3756 cx            1 R1        -0.094900
      37 C14         20.5375    -5.4577   -26.4379 cx            1 R1        -0.094900
      38 H1          16.8285     3.1202   -26.1675 hc            1 R1         0.054367
      39 H2          17.3378     3.1434   -24.4696 hc            1 R1         0.054367
      40 H3          17.0367     4.7112   -25.2304 hc            1 R1         0.054367
      41 H9          22.1629    -4.3513   -27.4441 hc            1 R1         0.098700
      42 H10         22.3289    -5.3928   -25.1944 hc            1 R1         0.093950
      43 H11         20.8432    -4.4604   -24.5342 hc            1 R1         0.093950
      44 H12         19.4714    -5.4284   -26.2276 hc            1 R1         0.093950
      45 H13         20.8370    -6.3966   -26.8966 hc            1 R1         0.093950
@<TRIPOS>BOND
       1       19       20 1
       2        2        1 1
       3        2       19 1
       4        3        4 1
       5        3        2 1
       6        5        3 1
       7       36       37 1
       8       35       36 1
       9       35       37 1
      10        6       35 1
      11        6        5 1
      12        6       19 1
      13        7        6 1
      14        7       18 1
      15        8        7 1
      16        9        8 1
      17       10        9 1
      18       11       10 1
      19       11       18 1
      20       12       11 1
      21       12       17 1
      22       13       12 1
      23       14       13 1
      24       15       14 1
      25       16       15 1
      26       16       17 1
      27       34       16 1
      28       17       31 1
      29       18       32 1
      30        1       21 1
      31        1       22 1
      32        1       23 1
      33        4       24 1
      34        4       33 1
      35        5       25 1
      36       37       44 1
      37       37       45 1
      38       36       42 1
      39       36       43 1
      40       35       41 1
      41        8       26 1
      42        9       27 1
      43       10       28 1
      44       13       29 1
      45       15       30 1
      46       34       38 1
      47       34       39 1
      48       34       40 1
@<TRIPOS>SUBSTRUCTURE
       1 R1              1 RESIDUE    0 **** ROOT      0
