@<TRIPOS>MOLECULE
L1
   45    48     1     0     0
SMALL
No Charge or Current Charge


@<TRIPOS>ATOM
      1 C1          11.7110    -2.3100     1.2660 C.3        1 L1        0.057300
      2 N1          13.0310    -2.6520     0.7230 N.am       1 L1       -0.402400
      3 C2          14.2010    -2.6280     1.3770 C.cat      1 L1        0.443600
      4 N2          14.3780    -2.3570     2.6730 N.3        1 L1       -0.470200
      5 N3          15.2220    -2.9200     0.5740 N.3        1 L1       -0.372200
      6 C3          14.7960    -3.2520    -0.7870 C.3        1 L1        0.126300
      7 C4          15.1410    -4.7330    -1.0690 C.ar       1 L1       -0.153300
      8 C5          16.3620    -5.2520    -0.5870 C.ar       1 L1       -0.104000
      9 C6          16.7320    -6.5910    -0.7920 C.ar       1 L1       -0.118500
     10 C7          15.8610    -7.4580    -1.4610 C.ar       1 L1       -0.087000
     11 C8          14.6400    -6.9710    -1.9580 C.ar       1 L1       -0.118500
     12 C9          14.2900    -5.6170    -1.7760 C.ar       1 L1       -0.104000
     13 C10         15.3790    -2.2440    -1.7950 C.ar       1 L1       -0.133300
     14 C11         15.9520    -2.6550    -3.0210 C.ar       1 L1       -0.101000
     15 C12         16.4340    -1.6940    -3.9270 C.ar       1 L1       -0.112000
     16 C13         16.3360    -0.3220    -3.6310 C.ar       1 L1       -0.088000
     17 C14         15.7940     0.1250    -2.4070 C.ar       1 L1       -0.016000
     18 C15         15.6710     1.5690    -2.0910 C.ar       1 L1       -0.182300
     19 C16         15.3830     2.0350    -0.7900 C.ar       1 L1       -0.084000
     20 C17         15.3530     3.4190    -0.5360 C.ar       1 L1       -0.243300
     21 C18         15.5970     4.3050    -1.5950 C.ar       1 L1        0.413200
     22 N4          15.8280     3.8920    -2.8510 N.ar       1 L1       -0.650000
     23 C19         15.8600     2.5640    -3.0760 C.ar       1 L1        0.415200
     24 C20         15.3330    -0.8570    -1.5010 C.ar       1 L1       -0.108000
     25 C21         13.2770    -3.0090    -0.6370 C.2        1 L1        0.707500
     26 O1          12.3980    -3.0670    -1.5060 O.2        1 L1       -0.475500
     27 H1          10.9190    -2.8650     0.7630 H          1 L1        0.083700
     28 H2          11.6550    -2.5320     2.3310 H          1 L1        0.083700
     29 H3          11.5240    -1.2460     1.1210 H          1 L1        0.083700
     30 H4          15.3230    -2.3600     3.0600 H          1 L1        0.331700
     31 H5          16.2010    -2.9160     0.8570 H          1 L1        0.336700
     32 H6          17.0270    -4.6210    -0.0260 H          1 L1        0.140500
     33 H7          17.6770    -6.9510    -0.4080 H          1 L1        0.156000
     34 H8          16.1300    -8.4940    -1.5740 H          1 L1        0.158000
     35 H9          13.9710    -7.6400    -2.4760 H          1 L1        0.156000
     36 H10         13.3490    -5.2830    -2.1750 H          1 L1        0.140500
     37 H11         16.0280    -3.7000    -3.2900 H          1 L1        0.160000
     38 H12         16.8720    -2.0020    -4.8660 H          1 L1        0.159000
     39 H13         16.6870     0.3860    -4.3650 H          1 L1        0.159000
     40 H14         15.2240     1.3430     0.0220 H          1 L1        0.132000
     41 H15         15.1720     3.8040     0.4550 H          1 L1        0.153000
     42 H16         15.6060     5.3720    -1.4290 H          1 L1        0.037100
     43 H17         16.0320     2.2850    -4.1010 H          1 L1        0.029100
     44 H18         14.8920    -0.5360    -0.5700 H          1 L1        0.128000
     45 H19         13.6380    -2.0620     3.3080 H          1 L1        0.331700
@<TRIPOS>BOND
     1     1     2 1   
     2     1    27 1   
     3     1    28 1   
     4     1    29 1   
     5     2     3 2   
     6     2    25 am  
     7     3     4 1   
     8     3     5 1   
     9     4    30 1   
    10     4    45 1   
    11     5     6 1   
    12     5    31 1   
    13     6     7 1   
    14     6    13 1   
    15     6    25 1   
    16     7     8 ar  
    17     7    12 ar  
    18     8     9 ar  
    19     8    32 1   
    20     9    10 ar  
    21     9    33 1   
    22    10    11 ar  
    23    10    34 1   
    24    11    12 ar  
    25    11    35 1   
    26    12    36 1   
    27    13    14 ar  
    28    13    24 ar  
    29    14    15 ar  
    30    14    37 1   
    31    15    16 ar  
    32    15    38 1   
    33    16    17 ar  
    34    16    39 1   
    35    17    18 1   
    36    17    24 ar  
    37    18    19 ar  
    38    18    23 ar  
    39    19    20 ar  
    40    19    40 1   
    41    20    21 ar  
    42    20    41 1   
    43    21    22 ar  
    44    21    42 1   
    45    22    23 ar  
    46    23    43 1   
    47    24    44 1   
    48    25    26 2   
@<TRIPOS>SUBSTRUCTURE
     1 L1          1 TEMP              0 ****  ****    0 ROOT
