@<TRIPOS>MOLECULE
L1
44 47 1 0 1
SMALL
USER_CHARGES
@<TRIPOS>CRYSIN
   74.7945    74.7945    74.7945   109.4712   109.4712   109.4712  1  1
@<TRIPOS>ATOM
       1 C1          17.8455    -1.6432   -29.0901 c3            1 L1         0.057300
       2 N1          18.4761    -1.6697   -27.7604 n             1 L1        -0.408400
       3 C2          17.8733    -1.8646   -26.5164 cz            1 L1         0.444600
       4 N2          16.7105    -2.4907   -26.3156 nv            1 L1        -0.474200
       5 N3          18.7354    -1.5023   -25.5412 nu            1 L1        -0.382200
       6 C3          20.0896    -1.1740   -26.0274 c3            1 L1         0.110000
       7 C4          20.6310     0.1601   -25.5240 ca            1 L1        -0.144300
       8 C5          21.9252     0.1786   -24.8643 ca            1 L1        -0.081000
       9 C6          22.3866     1.3948   -24.2932 ca            1 L1        -0.118000
      10 C7          21.6002     2.5590   -24.4578 ca            1 L1        -0.079000
      11 C8          20.3725     2.5073   -25.1610 cp            1 L1        -0.018000
      12 C9          19.6965     3.8334   -25.4233 cp            1 L1        -0.063000
      13 C10         20.4458     4.9255   -25.9307 ca            1 L1        -0.088000
      14 C11         19.8610     6.1072   -26.3434 ca            1 L1        -0.124000
      15 C12         18.4175     6.2646   -26.1052 ca            1 L1        -0.072000
      16 C13         17.6343     5.1833   -25.6034 ca            1 L1        -0.012000
      17 C15         18.2895     3.9955   -25.2844 ca            1 L1        -0.090000
      18 C16         19.9088     1.2597   -25.7270 ca            1 L1        -0.112000
      19 C17         20.7946    -2.5026   -25.4803 cx            1 L1        -0.176700
      20 C18         20.9009    -3.7225   -26.3345 cx            1 L1        -0.107400
      21 C19         22.1570    -2.9754   -25.9505 cx            1 L1        -0.107400
      22 C20         19.7580    -1.2340   -27.5481 c             1 L1         0.701500
      23 O1          20.5452    -0.8926   -28.4667 o             1 L1        -0.468500
      24 H1          17.6105    -0.6101   -29.3742 h1            1 L1         0.083367
      25 H2          18.5433    -2.0978   -29.8042 h1            1 L1         0.083367
      26 H3          16.9474    -2.2720   -29.0520 h1            1 L1         0.083367
      27 H4          16.0298    -2.7369   -27.0229 hn            1 L1         0.331700
      28 H5          18.7295    -2.0403   -24.6841 hn            1 L1         0.344700
      29 H6          22.5083    -0.7282   -24.7337 ha            1 L1         0.152000
      30 H7          23.3905     1.4470   -23.8824 ha            1 L1         0.159000
      31 H8          21.9436     3.4874   -24.0110 ha            1 L1         0.159000
      32 H9          21.4800     4.8290   -26.2475 ha            1 L1         0.147000
      33 H11         17.9667     7.1842   -26.4664 ha            1 L1         0.160000
      34 H12         17.6383     3.1364   -25.1528 ha            1 L1         0.131000
      35 H13         18.9752     1.2741   -26.2816 ha            1 L1         0.124000
      36 H14         20.6253    -2.5629   -24.4082 hc            1 L1         0.110700
      37 H15         20.6456    -4.7009   -25.9354 hc            1 L1         0.093950
      38 H16         20.7149    -3.5740   -27.3951 hc            1 L1         0.093950
      39 H17         22.6051    -2.3114   -26.6853 hc            1 L1         0.093950
      40 H18         22.7857    -3.5632   -25.2866 hc            1 L1         0.093950
      41 H19         16.3415    -2.4247   -25.3756 hn            1 L1         0.331700
      42 C14         16.2242     5.2776   -25.6203 cg            1 L1         0.221800
      43 N4          15.1177     5.2375   -25.4605 n1            1 L1        -0.342800
      44 H10         20.4058     6.9140   -26.8249 ha            1 L1         0.156000
@<TRIPOS>BOND
       1       22       23 1
       2       20       21 1
       3       19       20 1
       4       19       21 1
       5       42       43 1
       6       16       42 1
       7       16       17 1
       8       15       16 1
       9       14       15 1
      10       13       14 1
      11       12       13 1
      12       12       17 1
      13       11       12 1
      14       11       18 1
      15       10       11 1
      16        9       10 1
      17        8        9 1
      18        7        8 1
      19        7       18 1
      20        6        7 1
      21        6       19 1
      22        6       22 1
      23        5        6 1
      24        3        4 1
      25        3        5 1
      26        2        3 1
      27        2       22 1
      28        1        2 1
      29       21       39 1
      30       21       40 1
      31       20       37 1
      32       20       38 1
      33       19       36 1
      34       18       35 1
      35       17       34 1
      36       15       33 1
      37       14       44 1
      38       13       32 1
      39       10       31 1
      40        9       30 1
      41        8       29 1
      42        5       28 1
      43        4       27 1
      44        4       41 1
      45        1       24 1
      46        1       25 1
      47        1       26 1
@<TRIPOS>SUBSTRUCTURE
       1 L1              1 RESIDUE    0 **** ROOT      0
