@<TRIPOS>MOLECULE
R1
46 49 1 0 1
SMALL
USER_CHARGES
@<TRIPOS>CRYSIN
   74.7114    74.7114    74.7114   109.4712   109.4712   109.4712  1  1
@<TRIPOS>ATOM
       1 C16         17.8455    -1.6432   -29.0901 c3            1 R1         0.057300
       2 N4          18.4761    -1.6697   -27.7604 n             1 R1        -0.410300
       3 C15         17.8733    -1.8646   -26.5164 cz            1 R1         0.465400
       4 N3          16.7105    -2.4907   -26.3156 nv            1 R1        -0.472200
       5 N2          18.7354    -1.5023   -25.5412 nu            1 R1        -0.390100
       6 C11         20.0896    -1.1740   -26.0274 c3            1 R1         0.107000
       7 C10         20.6310     0.1601   -25.5240 ca            1 R1        -0.142300
       8 C9          21.9252     0.1786   -24.8643 ca            1 R1        -0.125000
       9 C8          22.3866     1.3948   -24.2932 ca            1 R1        -0.114000
      10 C7          21.6002     2.5590   -24.4578 ca            1 R1        -0.087000
      11 C6          20.3725     2.5073   -25.1610 cp            1 R1        -0.003000
      12 C5          19.6965     3.8334   -25.4233 cp            1 R1        -0.152300
      13 C4          20.4458     4.9255   -25.9307 ca            1 R1         0.379200
      14 N1          19.8610     6.1072   -26.3434 nb            1 R1        -0.621000
      15 C3          18.4175     6.2646   -26.1052 ca            1 R1         0.345200
      16 C2          17.6343     5.1833   -25.6034 ca            1 R1         0.017800
      17 C19         18.2895     3.9955   -25.2844 ca            1 R1        -0.113000
      18 C18         19.9088     1.2597   -25.7270 ca            1 R1        -0.107000
      19 C12         20.7946    -2.5026   -25.4803 cx            1 R1        -0.180700
      20 C14         20.9009    -3.7225   -26.3345 cx            1 R1        -0.094900
      21 C13         22.1570    -2.9754   -25.9505 cx            1 R1        -0.094900
      22 C17         19.7580    -1.2340   -27.5481 c             1 R1         0.704500
      23 O2          20.5452    -0.8926   -28.4667 o             1 R1        -0.473500
      24 H17         17.6105    -0.6101   -29.3742 h1            1 R1         0.084033
      25 H18         18.5433    -2.0978   -29.8042 h1            1 R1         0.084033
      26 H16         16.9474    -2.2720   -29.0520 h1            1 R1         0.084033
      27 H15         16.0298    -2.7369   -27.0229 hn            1 R1         0.331700
      28 H14         18.7295    -2.0403   -24.6841 hn            1 R1         0.337700
      29 H8          22.5083    -0.7282   -24.7337 ha            1 R1         0.125000
      30 H7          23.3905     1.4470   -23.8824 ha            1 R1         0.155000
      31 H6          21.9436     3.4874   -24.0110 ha            1 R1         0.162000
      32 H5          21.4800     4.8290   -26.2475 h4            1 R1         0.030100
      33 H4          17.9667     7.1842   -26.4664 h4            1 R1         0.040100
      34 H20         17.6383     3.1364   -25.1528 ha            1 R1         0.150000
      35 H19         18.9752     1.2741   -26.2816 ha            1 R1         0.162000
      36 H9          20.6253    -2.5629   -24.4082 hc            1 R1         0.099700
      37 H13         20.6456    -4.7009   -25.9354 hc            1 R1         0.093700
      38 H12         20.7149    -3.5740   -27.3951 hc            1 R1         0.093700
      39 H11         22.6051    -2.3114   -26.6853 hc            1 R1         0.093700
      40 H10         22.7857    -3.5632   -25.2866 hc            1 R1         0.093700
      41 H21         16.3415    -2.4247   -25.3756 hn            1 R1         0.331700
      42 C1          15.1757     5.1999   -26.5455 c3            1 R1         0.108700
      43 O1          16.1664     4.4899   -25.7175 os            1 R1        -0.319900
      44 H1          14.2792     4.5732   -26.4623 h1            1 R1         0.054700
      45 H2          15.0045     6.2488   -26.2739 h1            1 R1         0.054700
      46 H3          15.5896     5.1416   -27.5597 h1            1 R1         0.054700
@<TRIPOS>BOND
       1       22       23 1
       2        2        1 1
       3        2       22 1
       4        3        4 1
       5        3        2 1
       6        5        3 1
       7       21       20 1
       8       19       21 1
       9       19       20 1
      10        6       19 1
      11        6        5 1
      12        6       22 1
      13        7        6 1
      14        7       18 1
      15        8        7 1
      16        9        8 1
      17       10        9 1
      18       11       10 1
      19       11       18 1
      20       12       11 1
      21       12       17 1
      22       13       12 1
      23       14       13 1
      24       15       14 1
      25       16       15 1
      26       16       17 1
      27       43       16 1
      28       42       43 1
      29       17       34 1
      30       18       35 1
      31        1       26 1
      32        1       24 1
      33        1       25 1
      34        4       27 1
      35        4       41 1
      36        5       28 1
      37       20       38 1
      38       20       37 1
      39       21       40 1
      40       21       39 1
      41       19       36 1
      42        8       29 1
      43        9       30 1
      44       10       31 1
      45       13       32 1
      46       15       33 1
      47       42       44 1
      48       42       45 1
      49       42       46 1
@<TRIPOS>SUBSTRUCTURE
       1 R1              1 RESIDUE    0 **** ROOT      0
