@<TRIPOS>MOLECULE
R1
53 56 1 0 1
SMALL
USER_CHARGES
@<TRIPOS>CRYSIN
   74.6247    74.6247    74.6247   109.4712   109.4712   109.4712  1  1
@<TRIPOS>ATOM
       1 C21         18.4184    -1.2248   -29.4297 c3            1 R1         0.058300
       2 N3          19.1093    -1.5049   -28.1785 n             1 R1        -0.412300
       3 C20         18.5254    -1.7665   -26.9647 cz            1 R1         0.464400
       4 N2          17.3577    -2.3712   -26.8354 nv            1 R1        -0.473200
       5 N1          19.4835    -1.9989   -26.0900 nu            1 R1        -0.390100
       6 C13         20.8738    -1.8523   -26.5924 c3            1 R1         0.131300
       7 C14         21.6129    -3.1969   -26.3734 ca            1 R1        -0.148300
       8 C19         21.5582    -3.7748   -25.1122 ca            1 R1        -0.110500
       9 C18         22.1916    -4.9942   -24.7785 ca            1 R1        -0.118500
      10 C17         22.9769    -5.6287   -25.7404 ca            1 R1        -0.091000
      11 C16         23.0593    -5.0311   -26.9979 ca            1 R1        -0.118500
      12 C15         22.4200    -3.8210   -27.3187 ca            1 R1        -0.110500
      13 C12         21.5953    -0.6241   -25.9800 ca            1 R1        -0.142300
      14 C11         23.0285    -0.6652   -25.7011 ca            1 R1        -0.082000
      15 C10         23.6954     0.5016   -25.4110 ca            1 R1        -0.122000
      16 C9          22.9769     1.6899   -25.3474 ca            1 R1        -0.080000
      17 C8          21.5439     1.8335   -25.5687 cp            1 R1        -0.019000
      18 C7          20.9056     3.1604   -25.7141 cp            1 R1        -0.030000
      19 C6          21.5934     4.3551   -26.1148 ca            1 R1        -0.147000
      20 C5          20.9618     5.5074   -26.2801 ca            1 R1        -0.086000
      21 C4          19.6383     5.5609   -25.9556 ca            1 R1        -0.187000
      22 C3          18.8818     4.4711   -25.5371 ca            1 R1         0.134100
      23 C24         19.5292     3.2532   -25.3876 ca            1 R1        -0.157000
      24 C23         20.9117     0.5995   -25.8934 ca            1 R1        -0.105000
      25 C22         20.5051    -1.5136   -28.1083 c             1 R1         0.705500
      26 O2          21.1701    -1.2037   -29.1045 o             1 R1        -0.468500
      27 H20         18.4116    -0.1396   -29.5904 h1            1 R1         0.082367
      28 H21         18.9434    -1.7051   -30.2646 h1            1 R1         0.082367
      29 H19         17.3974    -1.6258   -29.4331 h1            1 R1         0.082367
      30 H24         17.0535    -2.6789   -25.9206 hn            1 R1         0.330200
      31 H17         19.2699    -2.6738   -25.3668 hn            1 R1         0.339700
      32 H16         20.9928    -3.3328   -24.2971 ha            1 R1         0.144000
      33 H15         22.0724    -5.3911   -23.7747 ha            1 R1         0.156000
      34 H14         23.5886    -6.4930   -25.4991 ha            1 R1         0.157000
      35 H13         23.8525    -5.3636   -27.6610 ha            1 R1         0.156000
      36 H12         22.6471    -3.3744   -28.2822 ha            1 R1         0.144000
      37 H11         23.6842    -1.4879   -25.9705 ha            1 R1         0.155000
      38 H10         24.7776     0.4136   -25.4289 ha            1 R1         0.156000
      39 H9          23.4797     2.6329   -25.1543 ha            1 R1         0.158000
      40 H8          22.6586     4.3617   -26.3410 ha            1 R1         0.141000
      41 H6          19.1058     6.4740   -26.2174 ha            1 R1         0.149000
      42 H23         19.0031     2.3912   -24.9881 ha            1 R1         0.137000
      43 H22         19.8711     0.5410   -26.1986 ha            1 R1         0.128000
      44 H18         16.5973    -2.4350   -27.5001 hn            1 R1         0.330200
      45 C1          16.3823     5.8377   -24.8040 c3            1 R1        -0.101100
      46 C2          17.4906     4.8082   -25.0647 c3            1 R1         0.127400
      47 O1          18.4836     5.5335   -25.8057 os            1 R1        -0.339900
      48 H1          16.1069     6.3163   -25.7520 hc            1 R1         0.052033
      49 H2          15.4738     5.4805   -24.3036 hc            1 R1         0.052033
      50 H3          16.8216     6.6959   -24.2807 hc            1 R1         0.052033
      51 H4          17.9369     4.3776   -24.1599 h1            1 R1         0.044700
      52 H5          17.1309     3.9427   -25.6346 h1            1 R1         0.044700
      53 H7          22.2954     5.4384   -28.2277 ha            1 R1         0.146000
@<TRIPOS>BOND
       1       25       26 1
       2        2        1 1
       3        2       25 1
       4        3        4 1
       5        3        2 1
       6        5        3 1
       7        9        8 1
       8       10        9 1
       9       11       10 1
      10       12       11 1
      11        7       12 1
      12        7        8 1
      13        6        7 1
      14        6        5 1
      15        6       25 1
      16       13        6 1
      17       13       24 1
      18       14       13 1
      19       15       14 1
      20       16       15 1
      21       17       16 1
      22       17       24 1
      23       18       17 1
      24       18       23 1
      25       19       18 1
      26       20       19 1
      27       21       20 1
      28       22       21 1
      29       22       23 1
      30       47       22 1
      31       46       47 1
      32       45       46 1
      33       23       42 1
      34       24       43 1
      35        1       29 1
      36        1       27 1
      37        1       28 1
      38        4       44 1
      39        4       30 1
      40        5       31 1
      41        8       32 1
      42        9       33 1
      43       10       34 1
      44       11       35 1
      45       12       36 1
      46       14       37 1
      47       15       38 1
      48       16       39 1
      49       19       40 1
      50       20       53 1
      51       21       41 1
      52       46       51 1
      53       46       52 1
      54       45       48 1
      55       45       49 1
      56       45       50 1
@<TRIPOS>SUBSTRUCTURE
       1 R1              1 RESIDUE    0 **** ROOT      0
