@<TRIPOS>MOLECULE
L1
48 51 1 0 1
SMALL
USER_CHARGES
@<TRIPOS>CRYSIN
   74.7117    74.7117    74.7117   109.4712   109.4712   109.4712  1  1
@<TRIPOS>ATOM
       1 C2          19.2396     3.2182   -25.9570 ca            1 L1        -0.184600
       2 C3          19.9952     4.1127   -26.7707 ca            1 L1         0.409200
       3 N1          21.2656     3.8336   -27.0991 nb            1 L1        -0.647000
       4 C4          21.7949     2.6630   -26.7079 ca            1 L1         0.408200
       5 C5          21.0788     1.6541   -25.9416 cp            1 L1        -0.177300
       6 C6          21.6883     0.2687   -25.6517 cp            1 L1        -0.015000
       7 C7          22.8785     0.1944   -24.9375 ca            1 L1        -0.088000
       8 C8          23.5009    -1.0324   -24.6824 ca            1 L1        -0.112000
       9 C9          22.8374    -2.2106   -25.1340 ca            1 L1        -0.101000
      10 C10         21.5892    -2.1786   -25.7276 ca            1 L1        -0.133300
      11 C11         20.9554    -3.4613   -26.2564 c3            1 L1         0.127300
      12 C12         21.7012    -4.7737   -25.8499 ca            1 L1        -0.152300
      13 C13         22.7023    -5.3187   -26.6926 ca            1 L1        -0.103500
      14 C14         23.4341    -6.4854   -26.2857 ca            1 L1        -0.119000
      15 C15         23.0942    -7.1014   -25.0759 ca            1 L1        -0.087000
      16 C16         22.2205    -6.4770   -24.1807 ca            1 L1        -0.119000
      17 C17         21.4684    -5.3253   -24.5826 ca            1 L1        -0.103500
      18 N2          19.5824    -3.5671   -25.8159 nu            1 L1        -0.389100
      19 C18         18.6960    -3.4031   -26.8028 cz            1 L1         0.467400
      20 N3          17.3658    -3.5522   -26.7418 nv            1 L1        -0.471200
      21 N4          19.2966    -3.2053   -28.0405 n             1 L1        -0.409300
      22 C19         18.6750    -2.5380   -29.2374 c3            1 L1         0.057300
      23 C20         20.6499    -3.3091   -27.7895 c             1 L1         0.707500
      24 O1          21.5257    -3.1564   -28.6208 o             1 L1        -0.475500
      25 C21         21.0425    -0.9446   -26.1026 ca            1 L1        -0.108000
      26 C22         19.8305     2.0348   -25.5527 ca            1 L1        -0.089000
      27 H4          19.6513     5.0354   -27.2357 h4            1 L1         0.036100
      28 H5          22.7419     2.4044   -27.1793 h4            1 L1         0.029100
      29 H6          23.3221     1.1065   -24.5495 ha            1 L1         0.159000
      30 H7          24.4169    -1.1700   -24.1155 ha            1 L1         0.158000
      31 H8          23.4094    -3.1231   -24.9938 ha            1 L1         0.160000
      32 H9          22.9813    -4.9836   -27.6872 ha            1 L1         0.141000
      33 H11         23.6105    -8.0152   -24.7972 ha            1 L1         0.157000
      34 H13         20.6753    -4.9506   -23.9423 ha            1 L1         0.141000
      35 H14         19.2178    -3.7198   -24.8843 hn            1 L1         0.337700
      36 H15         16.7999    -3.4906   -27.5786 hn            1 L1         0.331200
      37 H16         18.7434    -1.4503   -29.1122 h1            1 L1         0.083700
      38 H17         19.0962    -2.9331   -30.1701 h1            1 L1         0.083700
      39 H18         17.6112    -2.8060   -29.2425 h1            1 L1         0.083700
      40 H19         20.2025    -0.8371   -26.7825 ha            1 L1         0.128000
      41 H20         19.2236     1.3449   -24.9739 ha            1 L1         0.132000
      42 H21         16.9437    -3.3530   -25.8439 hn            1 L1         0.331200
      43 C1          17.8231     3.6635   -25.4546 c3            1 L1        -0.055800
      44 H1          16.9815     3.5096   -26.1413 hc            1 L1         0.053367
      45 H2          17.5209     3.1973   -24.5087 hc            1 L1         0.053367
      46 H3          17.8051     4.7440   -25.2660 hc            1 L1         0.053367
      47 H10         24.0900    -6.8979   -27.0466 ha            1 L1         0.156000
      48 H12         22.0117    -7.0292   -23.2691 ha            1 L1         0.156000
@<TRIPOS>BOND
       1       23       24 1
       2       21       22 1
       3       21       23 1
       4       19       20 1
       5       19       21 1
       6       18       19 1
       7       16       17 1
       8       15       16 1
       9       14       15 1
      10       13       14 1
      11       12       13 1
      12       12       17 1
      13       11       12 1
      14       11       18 1
      15       11       23 1
      16       10       11 1
      17       10       25 1
      18        9       10 1
      19        8        9 1
      20        7        8 1
      21        6        7 1
      22        6       25 1
      23        5        6 1
      24        5       26 1
      25        4        5 1
      26        3        4 1
      27        2        3 1
      28        1        2 1
      29        1       26 1
      30       43        1 1
      31       26       41 1
      32       25       40 1
      33       22       37 1
      34       22       38 1
      35       22       39 1
      36       20       36 1
      37       20       42 1
      38       18       35 1
      39       17       34 1
      40       16       48 1
      41       15       33 1
      42       14       47 1
      43       13       32 1
      44        9       31 1
      45        8       30 1
      46        7       29 1
      47        4       28 1
      48        2       27 1
      49       43       44 1
      50       43       45 1
      51       43       46 1
@<TRIPOS>SUBSTRUCTURE
       1 L1              1 RESIDUE    0 **** ROOT      0
