@<TRIPOS>MOLECULE
L1
   43    46     1     0     0
SMALL
bcc


@<TRIPOS>ATOM
      1 C1          11.7860    -2.3270     1.0540 c3         1 L1        0.057300
      2 N1          13.1440    -2.5990     0.5660 n          1 L1       -0.403400
      3 C2          14.2730    -2.5330     1.2870 cz         1 L1        0.442600
      4 N2          14.3650    -2.2940     2.6000 nv         1 L1       -0.471200
      5 N3          15.3470    -2.7620     0.5340 nu         1 L1       -0.373200
      6 C3          15.0190    -3.0680    -0.8500 c3         1 L1        0.107000
      7 C4          15.5630    -1.9950    -1.8100 ca         1 L1       -0.142300
      8 C5          16.1890    -2.3500    -3.0280 ca         1 L1       -0.126000
      9 C6          16.6160    -1.3550    -3.9200 ca         1 L1       -0.115000
     10 C7          16.4010     0.0020    -3.6210 ca         1 L1       -0.089000
     11 C8          15.8080     0.4000    -2.4040 cp         1 L1       -0.006000
     12 C9          15.5590     1.8330    -2.1090 cp         1 L1       -0.060000
     13 C10         15.2650     2.7460    -3.1490 ca         1 L1       -0.110000
     14 C11         14.9440     4.0910    -2.8730 ca         1 L1       -0.114000
     15 C12         14.9240     4.5520    -1.5460 ca         1 L1       -0.102000
     16 C13         15.2490     3.6730    -0.5010 ca         1 L1        0.017400
     17 Cl1         15.2430     4.2510     1.1250 cl         1 L1       -0.074400
     18 C14         15.5650     2.3290    -0.7840 ca         1 L1       -0.113000
     19 C15         15.4120    -0.6170    -1.5040 ca         1 L1       -0.108000
     20 C16         15.5900    -4.4690    -1.1330 cx         1 L1       -0.179700
     21 C17         15.3460    -5.2330    -2.4200 cx         1 L1       -0.095400
     22 C18         16.7350    -4.7540    -2.0800 cx         1 L1       -0.095400
     23 C19         13.4810    -2.9580    -0.7770 c          1 L1        0.703500
     24 O1          12.6570    -3.1080    -1.6840 o          1 L1       -0.473500
     25 H1          11.0290    -2.7770     0.4110 h1         1 L1        0.084033
     26 H2          11.6520    -2.7180     2.0620 h1         1 L1        0.084033
     27 H3          11.6180    -1.2510     1.0770 h1         1 L1        0.084033
     28 H4          13.5840    -2.0390     3.2010 hn         1 L1        0.331700
     29 H5          16.3100    -2.7540     0.8770 hn         1 L1        0.336700
     30 H6          16.3450    -3.3790    -3.3170 ha         1 L1        0.125000
     31 H7          17.0900    -1.6330    -4.8520 ha         1 L1        0.155000
     32 H8          16.6980     0.7400    -4.3490 ha         1 L1        0.160000
     33 H9          15.2370     2.4080    -4.1740 ha         1 L1        0.141000
     34 H10         14.6870     4.7670    -3.6750 ha         1 L1        0.151000
     35 H11         14.6580     5.5770    -1.3280 ha         1 L1        0.161000
     36 H12         15.8090     1.6730     0.0350 ha         1 L1        0.141000
     37 H13         14.9320    -0.3280    -0.5820 ha         1 L1        0.162000
     38 H14         15.5720    -5.0930    -0.2430 hc         1 L1        0.099700
     39 H15         15.1570    -6.3020    -2.3390 hc         1 L1        0.093450
     40 H16         14.8360    -4.7370    -3.2440 hc         1 L1        0.093450
     41 H17         17.1290    -3.9420    -2.6800 hc         1 L1        0.093450
     42 H18         17.4700    -5.4960    -1.7710 hc         1 L1        0.093450
     43 H19         15.2860    -2.2900     3.0400 hn         1 L1        0.331700
@<TRIPOS>BOND
     1     1     2 1   
     2     1    25 1   
     3     1    26 1   
     4     1    27 1   
     5     2     3 2   
     6     2    23 1   
     7     3     4 1   
     8     3     5 1   
     9     4    28 1   
    10     4    43 1   
    11     5     6 1   
    12     5    29 1   
    13     6     7 1   
    14     6    20 1   
    15     6    23 1   
    16     7     8 ar  
    17     7    19 ar  
    18     8     9 ar  
    19     8    30 1   
    20     9    10 ar  
    21     9    31 1   
    22    10    11 ar  
    23    10    32 1   
    24    11    12 1   
    25    11    19 ar  
    26    12    13 ar  
    27    12    18 ar  
    28    13    14 ar  
    29    13    33 1   
    30    14    15 ar  
    31    14    34 1   
    32    15    16 ar  
    33    15    35 1   
    34    16    18 ar  
    35    16    17 1   
    36    18    36 1   
    37    19    37 1   
    38    20    21 1   
    39    20    22 1   
    40    20    38 1   
    41    21    22 1   
    42    21    39 1   
    43    21    40 1   
    44    22    41 1   
    45    22    42 1   
    46    23    24 2   
@<TRIPOS>SUBSTRUCTURE
     1 L1          1 TEMP              0 ****  ****    0 ROOT
