@<TRIPOS>MOLECULE
R1
45 48 1 0 1
SMALL
USER_CHARGES
@<TRIPOS>CRYSIN
   74.6251    74.6251    74.6251   109.4712   109.4712   109.4712  1  1
@<TRIPOS>ATOM
       1 C1          18.8146    -0.4892   -29.5705 c3            1 R1         0.056300
       2 N1          19.6440    -0.4142   -28.3238 n             1 R1        -0.400400
       3 C2          19.1911    -0.6520   -27.0503 cz            1 R1         0.441600
       4 N2          17.9414    -1.0701   -26.7518 nv            1 R1        -0.465200
       5 N3          20.1235    -0.4378   -26.1127 nu            1 R1        -0.369200
       6 C3          21.4401    -0.1746   -26.7592 c3            1 R1         0.129300
       7 C9          21.9624     1.1927   -26.2897 ca            1 R1        -0.155300
       8 C10         23.1372     1.3428   -25.6194 ca            1 R1        -0.105000
       9 C11         23.3475     2.5810   -24.9535 ca            1 R1        -0.116000
      10 C12         22.5087     3.7171   -25.1768 ca            1 R1        -0.083000
      11 C13         21.4137     3.5032   -26.0500 cp            1 R1        -0.012000
      12 C14         20.5944     4.6182   -26.5152 cp            1 R1        -0.056000
      13 C15         21.2864     5.5938   -27.2605 ca            1 R1        -0.108000
      14 C16         20.6047     6.7395   -27.7393 ca            1 R1        -0.112000
      15 C17         19.2812     6.9531   -27.3684 ca            1 R1        -0.102000
      16 C18         18.5939     5.9546   -26.6569 ca            1 R1         0.017400
      17 Cl1         16.8757     6.1304   -26.4731 cl            1 R1        -0.078400
      18 C19         19.1928     4.8344   -26.1711 ca            1 R1        -0.118000
      19 C20         21.1121     2.1934   -26.4541 ca            1 R1        -0.103000
      20 C4          22.4291    -1.3461   -26.4107 ca            1 R1        -0.258600
      21 C5          22.1920    -2.1368   -25.3418 ca            1 R1        -0.060000
      22 C6          22.9704    -3.2020   -25.1636 ca            1 R1        -0.230300
      23 C7          23.9311    -3.5679   -26.0743 ca            1 R1         0.430200
      24 N4          24.1172    -2.6800   -27.1836 nb            1 R1        -0.649000
      25 C8          23.4209    -1.6535   -27.3597 ca            1 R1         0.420200
      26 C21         21.0075    -0.2841   -28.1965 c             1 R1         0.705500
      27 O1          21.7981    -0.1579   -29.1222 o             1 R1        -0.473500
      28 H2          19.4691    -0.3192   -30.4342 h1            1 R1         0.085033
      29 H3          18.2493    -1.4166   -29.7249 h1            1 R1         0.085033
      30 H1          18.0277     0.2745   -29.5381 h1            1 R1         0.085033
      31 H4          17.6865    -1.3686   -25.8190 hn            1 R1         0.332700
      32 H5          20.1134    -1.0859   -25.3356 hn            1 R1         0.335700
      33 H10         23.7296     0.5132   -25.2449 ha            1 R1         0.145000
      34 H11         24.2020     2.7100   -24.2958 ha            1 R1         0.158000
      35 H12         22.5929     4.6947   -24.7114 ha            1 R1         0.160000
      36 H13         22.3370     5.4973   -27.5182 ha            1 R1         0.143000
      37 H14         21.2225     7.4428   -28.2899 ha            1 R1         0.152000
      38 H15         18.7972     7.7867   -27.8687 ha            1 R1         0.161000
      39 H16         18.6618     4.1573   -25.5085 ha            1 R1         0.135000
      40 H17         20.2509     2.0602   -27.1021 ha            1 R1         0.143000
      41 H7          22.6520    -3.8910   -24.3826 ha            1 R1         0.169000
      42 H8          24.3945    -4.5490   -26.0276 h4            1 R1         0.048100
      43 H18         17.1209    -0.7500   -27.2503 hn            1 R1         0.332700
      44 H6          23.6250    -0.8544   -27.9753 ha            1 R1         0.167000
      45 H9          21.0575    -2.2818   -24.6654 h4            1 R1         0.018100
@<TRIPOS>BOND
       1       26       27 1
       2       16       17 1
       3       16       18 1
       4       15       16 1
       5       14       15 1
       6       13       14 1
       7       12       13 1
       8       12       18 1
       9       11       12 1
      10       11       19 1
      11       10       11 1
      12        9       10 1
      13        8        9 1
      14        7        8 1
      15        7       19 1
      16       24       25 1
      17       23       24 1
      18       22       23 1
      19       21       22 1
      20       20       21 1
      21       20       25 1
      22        6       20 1
      23        6        7 1
      24        6       26 1
      25        5        6 1
      26        3        4 1
      27        3        5 1
      28        2        3 1
      29        2       26 1
      30        1        2 1
      31       19       40 1
      32       18       39 1
      33       15       38 1
      34       14       37 1
      35       13       36 1
      36       10       35 1
      37        9       34 1
      38        8       33 1
      39       25       45 1
      40       23       42 1
      41       22       41 1
      42       21       44 1
      43        5       32 1
      44        4       31 1
      45        4       43 1
      46        1       30 1
      47        1       28 1
      48        1       29 1
@<TRIPOS>SUBSTRUCTURE
       1 R1              1 RESIDUE    0 **** ROOT      0
