@<TRIPOS>MOLECULE
L1
   45    48     1     0     0
SMALL
No Charge or Current Charge


@<TRIPOS>ATOM
      1 C1          11.6800    -2.2520     1.3710 C.3        1 L1        0.058300
      2 N1          12.9870    -2.4650     0.7390 N.am       1 L1       -0.403400
      3 C2          14.1850    -2.5410     1.3430 C.cat      1 L1        0.445600
      4 N2          14.4090    -2.4160     2.6560 N.3        1 L1       -0.472200
      5 N3          15.1680    -2.7720     0.4650 N.3        1 L1       -0.375200
      6 C3          14.6500    -2.9660    -0.8910 C.3        1 L1        0.130300
      7 C4          14.8480    -4.4550    -1.2490 C.ar       1 L1       -0.150300
      8 C5          13.8640    -5.4580    -1.0220 C.ar       1 L1       -0.103500
      9 C6          14.1120    -6.8050    -1.3510 C.ar       1 L1       -0.119000
     10 C7          15.3440    -7.1710    -1.9160 C.ar       1 L1       -0.088000
     11 C8          16.3460    -6.2030    -2.0970 C.ar       1 L1       -0.119000
     12 C9          16.1030    -4.8700    -1.7350 C.ar       1 L1       -0.103500
     13 C10         15.2190    -1.9230    -1.8830 C.ar       1 L1       -0.140300
     14 C11         15.5980    -2.2560    -3.2070 C.ar       1 L1       -0.098000
     15 C12         16.1190    -1.2730    -4.0620 C.ar       1 L1       -0.119000
     16 C13         16.1730     0.0730    -3.6560 C.ar       1 L1       -0.061000
     17 C14         15.7350     0.4620    -2.3710 C.ar       1 L1       -0.126500
     18 C15         15.6380     1.8960    -1.9850 C.ar       1 L1        0.433800
     19 C16         15.6690     2.3240    -0.6450 C.ar       1 L1       -0.239300
     20 C17         15.3940     3.6640    -0.3350 C.ar       1 L1       -0.090000
     21 C18         15.0980     4.5440    -1.3840 C.ar       1 L1       -0.229300
     22 C19         15.1360     4.0510    -2.6960 C.ar       1 L1        0.404200
     23 N4          15.4020     2.7640    -2.9930 N.ar       1 L1       -0.652000
     24 C20         15.3180    -0.5640    -1.4870 C.ar       1 L1       -0.104000
     25 C21         13.1640    -2.6430    -0.6620 C.2        1 L1        0.708500
     26 O1          12.2500    -2.5950    -1.4960 O.2        1 L1       -0.476500
     27 H1          11.7440    -2.3620     2.4530 H          1 L1        0.083367
     28 H2          11.3120    -1.2540     1.1300 H          1 L1        0.083367
     29 H3          10.9550    -2.9810     1.0090 H          1 L1        0.083367
     30 H4          15.3670    -2.4680     3.0040 H          1 L1        0.330700
     31 H5          16.1550    -2.8600     0.7040 H          1 L1        0.338700
     32 H6          12.9020    -5.2400    -0.5860 H          1 L1        0.140500
     33 H7          13.3540    -7.5590    -1.1780 H          1 L1        0.155500
     34 H8          15.5210    -8.1950    -2.1990 H          1 L1        0.157000
     35 H9          17.3020    -6.4670    -2.5160 H          1 L1        0.155500
     36 H10         16.8780    -4.1350    -1.8690 H          1 L1        0.140500
     37 H11         15.5200    -3.2610    -3.5990 H          1 L1        0.160000
     38 H12         16.4500    -1.5560    -5.0470 H          1 L1        0.158000
     39 H13         16.5220     0.8210    -4.3560 H          1 L1        0.169000
     40 H14         15.8680     1.6240     0.1450 H          1 L1        0.136000
     41 H15         15.3940     4.0060     0.6890 H          1 L1        0.147000
     42 H16         14.8560     5.5800    -1.1860 H          1 L1        0.157000
     43 H17         14.9280     4.7140    -3.5250 H          1 L1        0.036100
     44 H18         14.9880    -0.2830    -0.5000 H          1 L1        0.126000
     45 H19         13.7000    -2.1130     3.3230 H          1 L1        0.330700
@<TRIPOS>BOND
     1     1     2 1   
     2     1    27 1   
     3     1    28 1   
     4     1    29 1   
     5     2     3 2   
     6     2    25 am  
     7     3     4 1   
     8     3     5 1   
     9     4    30 1   
    10     4    45 1   
    11     5     6 1   
    12     5    31 1   
    13     6     7 1   
    14     6    13 1   
    15     6    25 1   
    16     7     8 ar  
    17     7    12 ar  
    18     8     9 ar  
    19     8    32 1   
    20     9    10 ar  
    21     9    33 1   
    22    10    11 ar  
    23    10    34 1   
    24    11    12 ar  
    25    11    35 1   
    26    12    36 1   
    27    13    14 ar  
    28    13    24 ar  
    29    14    15 ar  
    30    14    37 1   
    31    15    16 ar  
    32    15    38 1   
    33    16    17 ar  
    34    16    39 1   
    35    17    18 1   
    36    17    24 ar  
    37    18    19 ar  
    38    18    23 ar  
    39    19    20 ar  
    40    19    40 1   
    41    20    21 ar  
    42    20    41 1   
    43    21    22 ar  
    44    21    42 1   
    45    22    23 ar  
    46    22    43 1   
    47    24    44 1   
    48    25    26 2   
@<TRIPOS>SUBSTRUCTURE
     1 L1          1 TEMP              0 ****  ****    0 ROOT
