@<TRIPOS>MOLECULE
R1
45 48 1 0 1
SMALL
USER_CHARGES
@<TRIPOS>CRYSIN
   74.7859    74.7859    74.7859   109.4712   109.4712   109.4712  1  1
@<TRIPOS>ATOM
       1 C18         19.2396     3.2182   -25.9570 ca            1 R1        -0.106900
       2 C17         19.9952     4.1127   -26.7707 ca            1 R1         0.421200
       3 N4          21.2656     3.8336   -27.0991 nb            1 R1        -0.640000
       4 C16         21.7949     2.6630   -26.7079 ca            1 R1         0.414200
       5 C15         21.0788     1.6541   -25.9416 cp            1 R1        -0.168300
       6 C14         21.6883     0.2687   -25.6517 cp            1 R1        -0.021000
       7 C13         22.8785     0.1944   -24.9375 ca            1 R1        -0.086000
       8 C12         23.5009    -1.0324   -24.6824 ca            1 R1        -0.112000
       9 C11         22.8374    -2.2106   -25.1340 ca            1 R1        -0.097000
      10 C10         21.5892    -2.1786   -25.7276 ca            1 R1        -0.132300
      11 C3          20.9554    -3.4613   -26.2564 c3            1 R1         0.124300
      12 C4          21.7012    -4.7737   -25.8499 ca            1 R1        -0.154300
      13 C5          22.7023    -5.3187   -26.6926 ca            1 R1        -0.104500
      14 C6          23.4341    -6.4854   -26.2857 ca            1 R1        -0.118000
      15 C7          23.0942    -7.1014   -25.0759 ca            1 R1        -0.087000
      16 C8          22.2205    -6.4770   -24.1807 ca            1 R1        -0.118000
      17 C9          21.4684    -5.3253   -24.5826 ca            1 R1        -0.104500
      18 N3          19.5824    -3.5671   -25.8159 nu            1 R1        -0.370200
      19 C2          18.6960    -3.4031   -26.8028 cz            1 R1         0.442600
      20 N2          17.3658    -3.5522   -26.7418 nv            1 R1        -0.468200
      21 N1          19.2966    -3.2053   -28.0405 n             1 R1        -0.401400
      22 C1          18.6750    -2.5380   -29.2374 c3            1 R1         0.057300
      23 C21         20.6499    -3.3091   -27.7895 c             1 R1         0.707500
      24 O1          21.5257    -3.1564   -28.6208 o             1 R1        -0.475500
      25 C20         21.0425    -0.9446   -26.1026 ca            1 R1        -0.105000
      26 C19         19.8305     2.0348   -25.5527 ca            1 R1        -0.085000
      27 H15         19.6513     5.0354   -27.2357 h4            1 R1         0.051100
      28 H14         22.7419     2.4044   -27.1793 h4            1 R1         0.034100
      29 H13         23.3221     1.1065   -24.5495 ha            1 R1         0.159000
      30 H12         24.4169    -1.1700   -24.1155 ha            1 R1         0.160000
      31 H11         23.4094    -3.1231   -24.9938 ha            1 R1         0.161000
      32 H6          22.9813    -4.9836   -27.6872 ha            1 R1         0.141000
      33 H7          24.0900    -6.8979   -27.0466 ha            1 R1         0.156500
      34 H8          23.6105    -8.0152   -24.7972 ha            1 R1         0.158000
      35 H9          22.0117    -7.0292   -23.2691 ha            1 R1         0.156500
      36 H10         20.6753    -4.9506   -23.9423 ha            1 R1         0.141000
      37 H5          19.2178    -3.7198   -24.8843 hn            1 R1         0.336700
      38 H18         16.7999    -3.4906   -27.5786 hn            1 R1         0.331700
      39 H2          18.7434    -1.4503   -29.1122 h1            1 R1         0.083700
      40 H3          19.0962    -2.9331   -30.1701 h1            1 R1         0.083700
      41 H1          17.6112    -2.8060   -29.2425 h1            1 R1         0.083700
      42 H17         20.2025    -0.8371   -26.7825 ha            1 R1         0.130000
      43 H16         19.2236     1.3449   -24.9739 ha            1 R1         0.145000
      44 H4          16.9437    -3.3530   -25.8439 hn            1 R1         0.331700
      45 Cl1         17.6208     3.7978   -26.0604 cl            1 R1        -0.055400
@<TRIPOS>BOND
       1       23       24 1
       2        1       45 1
       3        1       26 1
       4        2        1 1
       5        3        2 1
       6        4        3 1
       7        5        4 1
       8        5       26 1
       9        6        5 1
      10        6       25 1
      11        7        6 1
      12        8        7 1
      13        9        8 1
      14       10        9 1
      15       10       25 1
      16       16       17 1
      17       15       16 1
      18       14       15 1
      19       13       14 1
      20       12       13 1
      21       12       17 1
      22       11       12 1
      23       11       10 1
      24       11       23 1
      25       18       11 1
      26       19       20 1
      27       19       18 1
      28       21       19 1
      29       21       23 1
      30       22       21 1
      31       25       42 1
      32       26       43 1
      33        2       27 1
      34        4       28 1
      35        7       29 1
      36        8       30 1
      37        9       31 1
      38       17       36 1
      39       16       35 1
      40       15       34 1
      41       14       33 1
      42       13       32 1
      43       18       37 1
      44       20       44 1
      45       20       38 1
      46       22       41 1
      47       22       39 1
      48       22       40 1
@<TRIPOS>SUBSTRUCTURE
       1 R1              1 RESIDUE    0 **** ROOT      0
