@<TRIPOS>MOLECULE
L1
   44    47     1     0     0
SMALL
No Charge or Current Charge


@<TRIPOS>ATOM
      1 C1          11.7750    -2.0500     1.1860 C.3        1 L1        0.055300
      2 N1          13.0810    -2.4050     0.6210 N.am       1 L1       -0.397400
      3 C2          14.2520    -2.5120     1.2700 C.cat      1 L1        0.437600
      4 N2          14.4440    -2.3220     2.5810 N.3        1 L1       -0.461200
      5 N3          15.2420    -2.8670     0.4440 N.3        1 L1       -0.365200
      6 C3          14.7740    -3.0860    -0.9270 C.3        1 L1        0.132300
      7 C4          14.9000    -4.5950    -1.2710 C.ar       1 L1       -0.383900
      8 C5          16.0470    -5.1640    -1.8460 C.ar       1 L1        0.464200
      9 N4          16.1700    -6.4830    -2.0820 N.ar       1 L1       -0.671000
     10 C6          15.1540    -7.2490    -1.7240 C.ar       1 L1        0.667900
     11 N5          14.0440    -6.8480    -1.1290 N.ar       1 L1       -0.671000
     12 C7          13.9100    -5.5340    -0.9210 C.ar       1 L1        0.464200
     13 C8          15.3790    -2.0450    -1.9000 C.ar       1 L1       -0.159300
     14 C9          15.8320    -2.3840    -3.1970 C.ar       1 L1       -0.109000
     15 C10         16.3420    -1.3950    -4.0510 C.ar       1 L1       -0.114000
     16 C11         16.3040    -0.0420    -3.6750 C.ar       1 L1       -0.082000
     17 C12         15.7980     0.3540    -2.4200 C.ar       1 L1       -0.009000
     18 C13         15.5970     1.7920    -2.0980 C.ar       1 L1       -0.058000
     19 C14         15.2950     2.7190    -3.1260 C.ar       1 L1       -0.107000
     20 C15         14.9740     4.0600    -2.8370 C.ar       1 L1       -0.112000
     21 C16         14.9640     4.5100    -1.5060 C.ar       1 L1       -0.101000
     22 C17         15.3030     3.6220    -0.4730 C.ar       1 L1        0.017400
     23 Cl1         15.3090     4.1910     1.1560 Cl         1 L1       -0.077400
     24 C18         15.6160     2.2790    -0.7690 C.ar       1 L1       -0.117000
     25 C19         15.4020    -0.6710    -1.5260 C.ar       1 L1       -0.102000
     26 C20         13.2880    -2.7180    -0.7540 C.2        1 L1        0.703500
     27 O1          12.3960    -2.7760    -1.6050 O.2        1 L1       -0.469500
     28 H1          10.9780    -2.6470     0.7440 H          1 L1        0.086367
     29 H2          11.7570    -2.2170     2.2630 H          1 L1        0.086367
     30 H3          11.5610    -1.0000     0.9840 H          1 L1        0.086367
     31 H4          15.3900    -2.3980     2.9630 H          1 L1        0.333700
     32 H5          16.2250    -2.9100     0.7180 H          1 L1        0.332700
     33 H6          16.8880    -4.5570    -2.1240 H          1 L1        0.043100
     34 H7          15.2630    -8.3090    -1.8720 H          1 L1        0.082100
     35 H8          12.9970    -5.2630    -0.4150 H          1 L1        0.043100
     36 H9          15.7950    -3.3850    -3.5940 H          1 L1        0.141000
     37 H10         16.7240    -1.6740    -5.0220 H          1 L1        0.159000
     38 H11         16.6360     0.6970    -4.3900 H          1 L1        0.161000
     39 H12         15.2470     2.3930    -4.1560 H          1 L1        0.144000
     40 H13         14.7000     4.7390    -3.6310 H          1 L1        0.153000
     41 H14         14.6920     5.5290    -1.2780 H          1 L1        0.162000
     42 H15         15.8570     1.6170     0.0450 H          1 L1        0.135000
     43 H16         15.0170    -0.3790    -0.5610 H          1 L1        0.145000
     44 H17         13.7270    -2.0000     3.2310 H          1 L1        0.333700
@<TRIPOS>BOND
     1     1     2 1   
     2     1    28 1   
     3     1    29 1   
     4     1    30 1   
     5     2     3 2   
     6     2    26 am  
     7     3     4 1   
     8     3     5 1   
     9     4    31 1   
    10     4    44 1   
    11     5     6 1   
    12     5    32 1   
    13     6     7 1   
    14     6    13 1   
    15     6    26 1   
    16     7     8 ar  
    17     7    12 ar  
    18     8     9 ar  
    19     8    33 1   
    20     9    10 ar  
    21    10    11 ar  
    22    10    34 1   
    23    11    12 ar  
    24    12    35 1   
    25    13    14 ar  
    26    13    25 ar  
    27    14    15 ar  
    28    14    36 1   
    29    15    16 ar  
    30    15    37 1   
    31    16    17 ar  
    32    16    38 1   
    33    17    18 1   
    34    17    25 ar  
    35    18    19 ar  
    36    18    24 ar  
    37    19    20 ar  
    38    19    39 1   
    39    20    21 ar  
    40    20    40 1   
    41    21    22 ar  
    42    21    41 1   
    43    22    23 1   
    44    22    24 ar  
    45    24    42 1   
    46    25    43 1   
    47    26    27 2   
@<TRIPOS>SUBSTRUCTURE
     1 L1          1 TEMP              0 ****  ****    0 ROOT
