@<TRIPOS>MOLECULE
L1
   45    48     1     0     0
SMALL
bcc


@<TRIPOS>ATOM
      1 C1          11.7400    -2.2130     1.2310 c3         1 L1        0.056300
      2 N1          13.0680    -2.5560     0.7090 n          1 L1       -0.400400
      3 C2          14.2260    -2.5680     1.3850 cz         1 L1        0.441600
      4 N2          14.3830    -2.3340     2.6890 nv         1 L1       -0.465200
      5 N3          15.2560    -2.8610     0.5930 nu         1 L1       -0.369200
      6 C3          14.8530    -3.1590    -0.7800 c3         1 L1        0.129300
      7 C4          15.1440    -4.6470    -1.0920 ca         1 L1       -0.258600
      8 C5          14.2640    -5.4800    -1.8170 ca         1 L1       -0.060000
      9 C6          14.5650    -6.8430    -1.9700 ca         1 L1       -0.230300
     10 C7          15.7570    -7.3360    -1.4320 ca         1 L1        0.430200
     11 N4          16.6210    -6.5580    -0.7670 nb         1 L1       -0.649000
     12 C8          16.3170    -5.2550    -0.6050 ca         1 L1        0.420200
     13 C9          15.4650    -2.1400    -1.7600 ca         1 L1       -0.155300
     14 C10         16.0950    -2.5440    -2.9590 ca         1 L1       -0.105000
     15 C11         16.5720    -1.5780    -3.8630 ca         1 L1       -0.116000
     16 C12         16.4070    -0.2070    -3.5900 ca         1 L1       -0.083000
     17 C13         15.8150     0.2380    -2.3890 cp         1 L1       -0.012000
     18 C14         15.6040     1.6830    -2.1190 cp         1 L1       -0.056000
     19 C15         15.3470     2.5920    -3.1730 ca         1 L1       -0.108000
     20 C16         15.0380     3.9440    -2.9130 ca         1 L1       -0.112000
     21 C17         15.0070     4.4210    -1.5930 ca         1 L1       -0.102000
     22 C18         15.3050     3.5500    -0.5350 ca         1 L1        0.017400
     23 Cl1         15.2910     4.1520     1.0820 cl         1 L1       -0.078400
     24 C19         15.6000     2.1970    -0.7990 ca         1 L1       -0.118000
     25 C20         15.3710    -0.7500    -1.4800 ca         1 L1       -0.103000
     26 C21         13.3360    -2.8870    -0.6510 c          1 L1        0.705500
     27 O1          12.4750    -2.9290    -1.5360 o          1 L1       -0.473500
     28 H1          11.5520    -1.1510     1.0730 h1         1 L1        0.085033
     29 H2          10.9570    -2.7750     0.7220 h1         1 L1        0.085033
     30 H3          11.6700    -2.4250     2.2970 h1         1 L1        0.085033
     31 H4          15.3230    -2.3540     3.0890 hn         1 L1        0.332700
     32 H5          16.2330    -2.8540     0.8930 hn         1 L1        0.335700
     33 H6          13.3410    -5.1090    -2.2190 ha         1 L1        0.167000
     34 H7          13.8940    -7.5090    -2.4900 ha         1 L1        0.169000
     35 H8          16.0230    -8.3770    -1.5220 h4         1 L1        0.048100
     36 H9          17.0110    -4.6880    -0.0140 h4         1 L1        0.018100
     37 H10         16.2120    -3.5880    -3.2170 ha         1 L1        0.145000
     38 H11         17.0460    -1.8830    -4.7860 ha         1 L1        0.158000
     39 H12         16.7360     0.5090    -4.3260 ha         1 L1        0.160000
     40 H13         15.3300     2.2450    -4.1960 ha         1 L1        0.143000
     41 H14         14.7900     4.6180    -3.7190 ha         1 L1        0.152000
     42 H15         14.7490     5.4510    -1.3900 ha         1 L1        0.161000
     43 H16         15.8200     1.5470     0.0300 ha         1 L1        0.135000
     44 H17         14.8910    -0.4240    -0.5700 ha         1 L1        0.143000
     45 H18         13.6380    -2.0380     3.3180 hn         1 L1        0.332700
@<TRIPOS>BOND
     1     1     2 1   
     2     1    28 1   
     3     1    29 1   
     4     1    30 1   
     5     2     3 2   
     6     2    26 1   
     7     3     4 1   
     8     3     5 1   
     9     4    31 1   
    10     4    45 1   
    11     5     6 1   
    12     5    32 1   
    13     6     7 1   
    14     6    13 1   
    15     6    26 1   
    16     7     8 ar  
    17     7    12 ar  
    18     8     9 ar  
    19     8    33 1   
    20     9    10 ar  
    21     9    34 1   
    22    10    11 ar  
    23    10    35 1   
    24    11    12 ar  
    25    12    36 1   
    26    13    14 ar  
    27    13    25 ar  
    28    14    15 ar  
    29    14    37 1   
    30    15    16 ar  
    31    15    38 1   
    32    16    17 ar  
    33    16    39 1   
    34    17    18 1   
    35    17    25 ar  
    36    18    19 ar  
    37    18    24 ar  
    38    19    20 ar  
    39    19    40 1   
    40    20    21 ar  
    41    20    41 1   
    42    21    22 ar  
    43    21    42 1   
    44    22    23 1   
    45    22    24 ar  
    46    24    43 1   
    47    25    44 1   
    48    26    27 2   
@<TRIPOS>SUBSTRUCTURE
     1 L1          1 TEMP              0 ****  ****    0 ROOT
