@<TRIPOS>MOLECULE
R1
46 49 1 0 1
SMALL
USER_CHARGES
@<TRIPOS>CRYSIN
   74.7744    74.7744    74.7744   109.4712   109.4712   109.4712  1  1
@<TRIPOS>ATOM
       1 C1          18.0885    -0.8810   -30.5658 c3            1 R1         0.056300
       2 N1          18.8932    -1.3062   -29.4365 n             1 R1        -0.402400
       3 C2          18.3626    -1.6267   -28.1921 cz            1 R1         0.433600
       4 N2          17.1606    -2.1553   -28.0349 nv            1 R1        -0.465200
       5 N3          19.2973    -1.7461   -27.2722 nu            1 R1        -0.366200
       6 C3          20.6837    -1.4325   -27.8181 c3            1 R1         0.057000
       7 C8          21.3697    -0.2457   -27.3109 ca            1 R1        -0.142300
       8 C9          22.7944    -0.1424   -27.0857 ca            1 R1        -0.122000
       9 C10         23.3851     1.0736   -26.7665 ca            1 R1        -0.114000
      10 C11         22.6310     2.2631   -26.6907 ca            1 R1        -0.087000
      11 C12         21.2033     2.2420   -26.8835 cp            1 R1        -0.009000
      12 C13         20.2379     3.4650   -27.0354 cp            1 R1        -0.057000
      13 C14         20.6996     4.6962   -27.5315 ca            1 R1        -0.109000
      14 C15         19.9604     5.7762   -27.6557 ca            1 R1        -0.113000
      15 C16         18.6949     5.6652   -27.1859 ca            1 R1        -0.103000
      16 C17         18.1589     4.5035   -26.6074 ca            1 R1         0.018400
      17 C18         18.9499     3.3788   -26.4518 ca            1 R1        -0.116000
      18 C19         20.5649     0.9833   -27.0792 ca            1 R1        -0.100000
      19 C20         20.2961    -1.1528   -29.3479 c             1 R1         0.704500
      20 O1          21.0474    -0.6864   -30.2285 o             1 R1        -0.471500
      21 H1          17.4172    -0.0769   -30.2398 h1            1 R1         0.084367
      22 H2          18.6612    -0.4493   -31.3959 h1            1 R1         0.084367
      23 H3          17.4797    -1.7094   -30.9487 h1            1 R1         0.084367
      24 H4          16.3446    -1.8560   -28.5532 hn            1 R1         0.331700
      25 H5          19.1737    -2.1866   -26.3695 hn            1 R1         0.329700
      26 H13         23.4333    -1.0181   -27.1511 ha            1 R1         0.132000
      27 H14         24.4639     1.1949   -26.7383 ha            1 R1         0.155000
      28 H15         23.1250     3.2228   -26.5711 ha            1 R1         0.160000
      29 H16         21.6720     4.7554   -28.0182 ha            1 R1         0.142000
      30 H18         18.0185     6.5147   -27.2688 ha            1 R1         0.161000
      31 H19         18.6140     2.4269   -26.0512 ha            1 R1         0.137000
      32 H20         19.5311     1.0314   -27.4087 ha            1 R1         0.151000
      33 H21         16.9375    -2.5653   -27.1370 hn            1 R1         0.331700
      34 C4          21.7587    -2.5456   -28.5737 c3            1 R1        -0.034400
      35 C5          22.9677    -2.2138   -29.4324 cx            1 R1        -0.161700
      36 C6          23.9319    -3.1968   -29.9361 cx            1 R1        -0.112900
      37 C7          22.9917    -2.5827   -30.8643 cx            1 R1        -0.112900
      38 Cl1         16.5978     4.5928   -26.4249 cl            1 R1        -0.077400
      39 H6          21.3351    -3.4569   -29.0136 hc            1 R1         0.069700
      40 H7          22.1838    -2.7805   -27.5901 hc            1 R1         0.069700
      41 H8          23.3873    -1.2602   -29.1225 hc            1 R1         0.102700
      42 H9          24.9385    -2.7866   -29.9433 hc            1 R1         0.081700
      43 H10         23.7602    -4.2256   -29.6300 hc            1 R1         0.081700
      44 H11         22.3428    -3.3816   -31.2140 hc            1 R1         0.081700
      45 H12         23.3448    -1.8533   -31.5887 hc            1 R1         0.081700
      46 H17         20.6312     6.9327   -27.9665 ha            1 R1         0.152000
@<TRIPOS>BOND
       1       19       20 1
       2       16       38 1
       3       16       17 1
       4       15       16 1
       5       14       15 1
       6       13       14 1
       7       12       13 1
       8       12       17 1
       9       11       12 1
      10       11       18 1
      11       10       11 1
      12        9       10 1
      13        8        9 1
      14        7        8 1
      15        7       18 1
      16       36       37 1
      17       35       36 1
      18       35       37 1
      19       34       35 1
      20        6       34 1
      21        6        7 1
      22        6       19 1
      23        5        6 1
      24        3        4 1
      25        3        5 1
      26        2        3 1
      27        2       19 1
      28        1        2 1
      29       18       32 1
      30       17       31 1
      31       15       30 1
      32       14       46 1
      33       13       29 1
      34       10       28 1
      35        9       27 1
      36        8       26 1
      37       37       44 1
      38       37       45 1
      39       36       42 1
      40       36       43 1
      41       35       41 1
      42       34       39 1
      43       34       40 1
      44        5       25 1
      45        4       24 1
      46        4       33 1
      47        1       21 1
      48        1       22 1
      49        1       23 1
@<TRIPOS>SUBSTRUCTURE
       1 R1              1 RESIDUE    0 **** ROOT      0
