@<TRIPOS>MOLECULE
L1
44 47 1 0 1
SMALL
USER_CHARGES
@<TRIPOS>CRYSIN
   74.6679    74.6679    74.6679   109.4712   109.4712   109.4712  1  1
@<TRIPOS>ATOM
       1 C1          18.8146    -0.4892   -29.5705 c3            1 L1         0.059300
       2 N1          19.6440    -0.4142   -28.3238 n             1 L1        -0.404400
       3 C2          19.1911    -0.6520   -27.0503 cz            1 L1         0.444600
       4 N2          17.9414    -1.0701   -26.7518 nv            1 L1        -0.470200
       5 N3          20.1235    -0.4378   -26.1127 nu            1 L1        -0.367200
       6 C3          21.4401    -0.1746   -26.7592 c3            1 L1         0.042700
       7 C4          21.9624     1.1927   -26.2897 ca            1 L1        -0.136300
       8 C5          23.1372     1.3428   -25.6194 ca            1 L1        -0.102000
       9 C6          23.3475     2.5810   -24.9535 ca            1 L1        -0.117000
      10 C7          22.5087     3.7171   -25.1768 ca            1 L1        -0.084000
      11 C8          21.4137     3.5032   -26.0500 cp            1 L1        -0.023000
      12 C9          20.5944     4.6182   -26.5152 cp            1 L1        -0.053000
      13 C10         21.2864     5.5938   -27.2605 ca            1 L1        -0.113000
      14 C11         20.6047     6.7395   -27.7393 ca            1 L1        -0.114000
      15 C12         19.2812     6.9531   -27.3684 ca            1 L1        -0.107000
      16 C13         18.5939     5.9546   -26.6569 ca            1 L1         0.016400
      17 Cl1         16.8757     6.1304   -26.4731 cl            1 L1        -0.078400
      18 C14         19.1928     4.8344   -26.1711 ca            1 L1        -0.119000
      19 C15         21.1121     2.1934   -26.4541 ca            1 L1        -0.090000
      20 C20         21.0075    -0.2841   -28.1965 c             1 L1         0.718500
      21 O1          21.7981    -0.1579   -29.1222 o             1 L1        -0.448500
      22 H1          19.4691    -0.3192   -30.4342 h1            1 L1         0.083367
      23 H2          18.2493    -1.4166   -29.7249 h1            1 L1         0.083367
      24 H3          18.0277     0.2745   -29.5381 h1            1 L1         0.083367
      25 H4          17.6865    -1.3686   -25.8190 hn            1 L1         0.332200
      26 H5          20.1134    -1.0859   -25.3356 hn            1 L1         0.352700
      27 H6          23.7296     0.5132   -25.2449 ha            1 L1         0.165000
      28 H7          24.2020     2.7100   -24.2958 ha            1 L1         0.157000
      29 H8          22.5929     4.6947   -24.7114 ha            1 L1         0.157000
      30 H9          22.3370     5.4973   -27.5182 ha            1 L1         0.142000
      31 H10         21.2225     7.4428   -28.2899 ha            1 L1         0.150000
      32 H11         18.7972     7.7867   -27.8687 ha            1 L1         0.159000
      33 H12         18.6618     4.1573   -25.5085 ha            1 L1         0.144000
      34 H13         20.2509     2.0602   -27.1021 ha            1 L1         0.133000
      35 H17         17.1209    -0.7500   -27.2503 hn            1 L1         0.332200
      36 C16         22.4291    -1.3461   -26.4107 ca            1 L1         0.591300
      37 N4          22.1920    -2.1368   -25.3418 nb            1 L1        -0.685500
      38 C17         22.9704    -3.2020   -25.1636 ca            1 L1         0.443700
      39 C18         23.9311    -3.5679   -26.0743 ca            1 L1        -0.323600
      40 C19         24.1172    -2.6800   -27.1836 ca            1 L1         0.443700
      41 N5          23.4209    -1.6535   -27.3597 nb            1 L1        -0.685500
      42 H14         22.6520    -3.8910   -24.3826 h4            1 L1         0.054100
      43 H15         24.3945    -4.5490   -26.0276 ha            1 L1         0.181000
      44 H16         24.7868    -2.8803   -28.0187 h4            1 L1         0.054100
@<TRIPOS>BOND
       1       20       21 1
       2       40       41 1
       3       39       40 1
       4       38       39 1
       5       37       38 1
       6       36       37 1
       7       36       41 1
       8       16       17 1
       9       16       18 1
      10       15       16 1
      11       14       15 1
      12       13       14 1
      13       12       13 1
      14       12       18 1
      15       11       12 1
      16       11       19 1
      17       10       11 1
      18        9       10 1
      19        8        9 1
      20        7        8 1
      21        7       19 1
      22        6        7 1
      23        6       36 1
      24        6       20 1
      25        5        6 1
      26        3        4 1
      27        3        5 1
      28        2        3 1
      29        2       20 1
      30        1        2 1
      31       40       44 1
      32       39       43 1
      33       38       42 1
      34       19       34 1
      35       18       33 1
      36       15       32 1
      37       14       31 1
      38       13       30 1
      39       10       29 1
      40        9       28 1
      41        8       27 1
      42        5       26 1
      43        4       25 1
      44        4       35 1
      45        1       22 1
      46        1       23 1
      47        1       24 1
@<TRIPOS>SUBSTRUCTURE
       1 L1              1 RESIDUE    0 **** ROOT      0
