@<TRIPOS>MOLECULE
R1
39 41 1 0 1
SMALL
USER_CHARGES
@<TRIPOS>CRYSIN
   74.7131    74.7131    74.7131   109.4712   109.4712   109.4712  1  1
@<TRIPOS>ATOM
       1 C1          18.8146    -0.4892   -29.5705 c3            1 R1         0.056300
       2 N1          19.6440    -0.4142   -28.3238 n             1 R1        -0.400400
       3 C2          19.1911    -0.6520   -27.0503 cz            1 R1         0.433600
       4 N2          17.9414    -1.0701   -26.7518 nv            1 R1        -0.463200
       5 N3          20.1235    -0.4378   -26.1127 nu            1 R1        -0.361200
       6 C3          21.4401    -0.1746   -26.7592 c3            1 R1         0.052000
       7 C5          21.9624     1.1927   -26.2897 ca            1 R1        -0.153300
       8 C6          23.1372     1.3428   -25.6194 ca            1 R1        -0.122000
       9 C7          23.3475     2.5810   -24.9535 ca            1 R1        -0.113000
      10 C8          22.5087     3.7171   -25.1768 ca            1 R1        -0.085000
      11 C9          21.4137     3.5032   -26.0500 cp            1 R1        -0.007000
      12 C10         20.5944     4.6182   -26.5152 cp            1 R1        -0.058000
      13 C11         21.2864     5.5938   -27.2605 ca            1 R1        -0.108000
      14 C12         20.6047     6.7395   -27.7393 ca            1 R1        -0.113000
      15 C13         19.2812     6.9531   -27.3684 ca            1 R1        -0.102000
      16 C14         18.5939     5.9546   -26.6569 ca            1 R1         0.018400
      17 Cl1         16.8757     6.1304   -26.4731 cl            1 R1        -0.077400
      18 C15         19.1928     4.8344   -26.1711 ca            1 R1        -0.115000
      19 C16         21.1121     2.1934   -26.4541 ca            1 R1        -0.100000
      20 C17         21.0075    -0.2841   -28.1965 c             1 R1         0.700500
      21 O1          21.7981    -0.1579   -29.1222 o             1 R1        -0.468500
      22 H2          19.4691    -0.3192   -30.4342 h1            1 R1         0.084700
      23 H3          18.2493    -1.4166   -29.7249 h1            1 R1         0.084700
      24 H1          18.0277     0.2745   -29.5381 h1            1 R1         0.084700
      25 H4          17.6865    -1.3686   -25.8190 hn            1 R1         0.332700
      26 H5          20.1134    -1.0859   -25.3356 hn            1 R1         0.329700
      27 H9          23.7296     0.5132   -25.2449 ha            1 R1         0.134000
      28 H10         24.2020     2.7100   -24.2958 ha            1 R1         0.157000
      29 H11         22.5929     4.6947   -24.7114 ha            1 R1         0.161000
      30 H12         22.3370     5.4973   -27.5182 ha            1 R1         0.143000
      31 H13         21.2225     7.4428   -28.2899 ha            1 R1         0.152000
      32 H14         18.7972     7.7867   -27.8687 ha            1 R1         0.161000
      33 H15         18.6618     4.1573   -25.5085 ha            1 R1         0.137000
      34 H16         20.2509     2.0602   -27.1021 ha            1 R1         0.151000
      35 H17         17.1209    -0.7500   -27.2503 hn            1 R1         0.332700
      36 C4          22.1096    -1.5647   -26.0461 c3            1 R1        -0.098100
      37 H6          22.3460    -1.4485   -24.9812 hc            1 R1         0.080367
      38 H7          21.5584    -2.5130   -26.0238 hc            1 R1         0.080367
      39 H8          22.9988    -1.7249   -26.6682 hc            1 R1         0.080367
@<TRIPOS>BOND
       1       20       21 1
       2       16       17 1
       3       16       18 1
       4       15       16 1
       5       14       15 1
       6       13       14 1
       7       12       13 1
       8       12       18 1
       9       11       12 1
      10       11       19 1
      11       10       11 1
      12        9       10 1
      13        8        9 1
      14        7        8 1
      15        7       19 1
      16        6       36 1
      17        6        7 1
      18        6       20 1
      19        5        6 1
      20        3        4 1
      21        3        5 1
      22        2        3 1
      23        2       20 1
      24        1        2 1
      25       19       34 1
      26       18       33 1
      27       15       32 1
      28       14       31 1
      29       13       30 1
      30       10       29 1
      31        9       28 1
      32        8       27 1
      33       36       37 1
      34       36       38 1
      35       36       39 1
      36        5       26 1
      37        4       25 1
      38        4       35 1
      39        1       24 1
      40        1       22 1
      41        1       23 1
@<TRIPOS>SUBSTRUCTURE
       1 R1              1 RESIDUE    0 **** ROOT      0
