@<TRIPOS>MOLECULE
L1
   47    50     1     0     0
SMALL
No Charge or Current Charge


@<TRIPOS>ATOM
      1 C1          15.3150     5.5060     2.8950 C.3        1 L1       -0.032000
      2 C2          15.2760     4.6940     1.6710 C.1        1 L1       -0.069100
      3 C3          15.2920     4.0720     0.6200 C.1        1 L1       -0.161000
      4 C4          15.3510     3.4490    -0.6910 C.ar       1 L1       -0.064300
      5 C5          15.1650     4.2390    -1.8340 C.ar       1 L1        0.433200
      6 N1          15.2380     3.7480    -3.0810 N.ar       1 L1       -0.651000
      7 C6          15.4740     2.4310    -3.2310 C.ar       1 L1        0.418200
      8 C7          15.6500     1.5170    -2.1650 C.ar       1 L1       -0.188300
      9 C8          15.8250     0.0640    -2.4270 C.ar       1 L1        0.000000
     10 C9          16.3450    -0.3780    -3.6610 C.ar       1 L1       -0.090000
     11 C10         16.4140    -1.7400    -3.9780 C.ar       1 L1       -0.113000
     12 C11         15.9410    -2.7040    -3.0750 C.ar       1 L1       -0.126000
     13 C12         15.4460    -2.3240    -1.8040 C.ar       1 L1       -0.141300
     14 C13         14.8510    -3.3200    -0.7680 C.3        1 L1        0.109000
     15 C14         15.0820    -4.8500    -0.8610 C.3        1 L1       -0.181700
     16 C15         14.8180    -5.7100    -2.0750 C.3        1 L1       -0.094900
     17 C16         16.2250    -5.5700    -1.5440 C.3        1 L1       -0.094900
     18 N2          15.2670    -2.9520     0.5810 N.3        1 L1       -0.392100
     19 C17         14.2390    -2.5910     1.3480 C.cat      1 L1        0.467400
     20 N3          14.3970    -2.2860     2.6390 N.3        1 L1       -0.472200
     21 N4          13.0820    -2.6030     0.6690 N.am       1 L1       -0.410300
     22 C18         11.7630    -2.2010     1.1740 C.3        1 L1        0.058300
     23 C19         13.3390    -3.0540    -0.6600 C.2        1 L1        0.704500
     24 O1          12.4760    -3.1860    -1.5340 O.2        1 L1       -0.474500
     25 C20         15.4220    -0.9300    -1.5000 C.ar       1 L1       -0.109000
     26 C21         15.6010     2.0710    -0.8640 C.ar       1 L1       -0.066000
     27 H1          14.7230     6.4090     2.7700 H          1 L1        0.066033
     28 H2          14.9100     4.9400     3.7300 H          1 L1        0.066033
     29 H3          16.3440     5.7820     3.1250 H          1 L1        0.066033
     30 H4          14.9640     5.2980    -1.7520 H          1 L1        0.044100
     31 H5          15.4800     2.0980    -4.2570 H          1 L1        0.029100
     32 H6          16.6790     0.3260    -4.4060 H          1 L1        0.161000
     33 H7          16.8080    -2.0380    -4.9390 H          1 L1        0.155000
     34 H8          15.9690    -3.7190    -3.4240 H          1 L1        0.124000
     35 H9          14.7740    -5.3360     0.0640 H          1 L1        0.099700
     36 H10         14.3150    -6.6620    -1.9190 H          1 L1        0.093950
     37 H11         14.5670    -5.2130    -3.0010 H          1 L1        0.093950
     38 H12         16.9320    -5.0170    -2.1450 H          1 L1        0.093950
     39 H13         16.6530    -6.4220    -1.0200 H          1 L1        0.093950
     40 H14         16.2430    -2.9600     0.8790 H          1 L1        0.338700
     41 H15         13.6500    -1.9780     3.2590 H          1 L1        0.331700
     42 H16         10.9580    -2.6950     0.6300 H          1 L1        0.083700
     43 H17         11.6590    -2.4480     2.2310 H          1 L1        0.083700
     44 H18         11.6440    -1.1250     1.0540 H          1 L1        0.083700
     45 H19         15.0150    -0.6040    -0.5540 H          1 L1        0.161000
     46 H20         15.7570     1.4440    -0.0040 H          1 L1        0.141000
     47 H21         15.3340    -2.3090     3.0440 H          1 L1        0.331700
@<TRIPOS>BOND
     1     1     2 1   
     2     1    27 1   
     3     1    28 1   
     4     1    29 1   
     5     2     3 3   
     6     3     4 1   
     7     4     5 ar  
     8     4    26 ar  
     9     5     6 ar  
    10     5    30 1   
    11     6     7 ar  
    12     7     8 ar  
    13     7    31 1   
    14     8     9 1   
    15     8    26 ar  
    16     9    10 ar  
    17     9    25 ar  
    18    10    11 ar  
    19    10    32 1   
    20    11    12 ar  
    21    11    33 1   
    22    12    13 ar  
    23    12    34 1   
    24    13    14 1   
    25    13    25 ar  
    26    14    15 1   
    27    14    18 1   
    28    14    23 1   
    29    15    16 1   
    30    15    17 1   
    31    15    35 1   
    32    16    17 1   
    33    16    36 1   
    34    16    37 1   
    35    17    38 1   
    36    17    39 1   
    37    18    19 2   
    38    18    40 1   
    39    19    20 1   
    40    19    21 1   
    41    20    41 1   
    42    20    47 1   
    43    21    22 1   
    44    21    23 am  
    45    22    42 1   
    46    22    43 1   
    47    22    44 1   
    48    23    24 2   
    49    25    45 1   
    50    26    46 1   
@<TRIPOS>SUBSTRUCTURE
     1 L1          1 TEMP              0 ****  ****    0 ROOT
