@<TRIPOS>MOLECULE
L1
42 44 1 0 1
SMALL
USER_CHARGES
@<TRIPOS>CRYSIN
   74.6594    74.6594    74.6594   109.4712   109.4712   109.4712  1  1
@<TRIPOS>ATOM
       1 C3          21.1535    -2.4350   -26.3939 c3            1 L1         0.053000
       2 C4          21.6977    -1.1931   -25.6613 ca            1 L1        -0.148300
       3 C5          22.6697    -1.4075   -24.6861 ca            1 L1        -0.123000
       4 C6          23.1733    -0.1816   -24.0790 ca            1 L1        -0.114000
       5 C7          22.7051     1.1028   -24.4211 ca            1 L1        -0.086000
       6 C8          21.6633     1.2853   -25.3338 cp            1 L1        -0.008000
       7 C9          21.0557     2.5980   -25.5849 cp            1 L1        -0.058000
       8 C10         21.7475     3.6541   -26.1191 ca            1 L1        -0.108000
       9 C11         21.0819     4.8782   -26.4040 ca            1 L1        -0.113000
      10 C12         19.6644     5.0284   -26.2034 ca            1 L1        -0.102000
      11 C13         18.9075     4.0047   -25.6745 ca            1 L1         0.018400
      12 C14         19.6167     2.7927   -25.3866 ca            1 L1        -0.116000
      13 C15         21.1387     0.0815   -25.9097 ca            1 L1        -0.101000
      14 N1          19.8282    -2.7242   -25.8701 nu            1 L1        -0.380100
      15 C16         18.9230    -2.7031   -26.8283 cz            1 L1         0.456400
      16 N2          17.6643    -2.9676   -26.6037 nv            1 L1        -0.465200
      17 N3          19.4935    -2.3082   -28.0549 n             1 L1        -0.409300
      18 C17         18.7788    -2.2284   -29.3301 c3            1 L1         0.056300
      19 C18         20.7931    -2.0564   -27.8632 c             1 L1         0.703500
      20 O1          21.4760    -1.4935   -28.6660 o             1 L1        -0.470500
      21 H6          23.1937    -2.3267   -24.4415 ha            1 L1         0.134000
      22 H7          23.9734    -0.2637   -23.3493 ha            1 L1         0.156000
      23 H8          22.8340     1.9910   -23.8096 ha            1 L1         0.160000
      24 H9          22.8181     3.5145   -26.2370 ha            1 L1         0.143000
      25 H11         19.1910     5.9520   -26.5233 ha            1 L1         0.161000
      26 H12         18.9955     2.0167   -24.9491 ha            1 L1         0.137000
      27 H13         20.2780     0.1213   -26.5709 ha            1 L1         0.151000
      28 H14         19.6561    -3.1012   -24.9469 hn            1 L1         0.329700
      29 H15         16.9425    -2.5804   -27.1980 hn            1 L1         0.331700
      30 H16         18.0783    -3.0589   -29.4815 h1            1 L1         0.084700
      31 H17         18.3482    -1.2194   -29.3374 h1            1 L1         0.084700
      32 H18         19.5369    -2.2026   -30.1226 h1            1 L1         0.084700
      33 H19         17.2804    -3.4433   -25.7971 hn            1 L1         0.331700
      34 C1          23.5582    -3.5327   -26.9460 c3            1 L1        -0.111100
      35 C2          22.0925    -3.7621   -26.3303 c3            1 L1        -0.066400
      36 Cl1         17.2300     4.0706   -25.3366 cl            1 L1        -0.077400
      37 H1          24.0831    -2.6366   -26.5925 hc            1 L1         0.063367
      38 H2          24.2517    -4.3443   -26.6938 hc            1 L1         0.063367
      39 H3          23.5486    -3.3425   -28.0264 hc            1 L1         0.063367
      40 H4          22.3079    -4.1327   -25.3205 hc            1 L1         0.068700
      41 H5          21.5080    -4.4818   -26.9166 hc            1 L1         0.068700
      42 H10         21.5792     5.7487   -26.8216 ha            1 L1         0.152000
@<TRIPOS>BOND
       1       19       20 1
       2       17       18 1
       3       17       19 1
       4       15       16 1
       5       15       17 1
       6       14       15 1
       7       11       36 1
       8       11       12 1
       9       10       11 1
      10        9       10 1
      11        8        9 1
      12        7        8 1
      13        7       12 1
      14        6        7 1
      15        6       13 1
      16        5        6 1
      17        4        5 1
      18        3        4 1
      19        2        3 1
      20        2       13 1
      21        1        2 1
      22        1       14 1
      23        1       19 1
      24       35        1 1
      25       34       35 1
      26       18       30 1
      27       18       31 1
      28       18       32 1
      29       16       29 1
      30       16       33 1
      31       14       28 1
      32       13       27 1
      33       12       26 1
      34       10       25 1
      35        9       42 1
      36        8       24 1
      37        5       23 1
      38        4       22 1
      39        3       21 1
      40       35       40 1
      41       35       41 1
      42       34       37 1
      43       34       38 1
      44       34       39 1
@<TRIPOS>SUBSTRUCTURE
       1 L1              1 RESIDUE    0 **** ROOT      0
