@<TRIPOS>MOLECULE
R1
42 45 1 0 1
SMALL
USER_CHARGES
@<TRIPOS>CRYSIN
   74.6724    74.6724    74.6724   109.4712   109.4712   109.4712  1  1
@<TRIPOS>ATOM
       1 C3          21.1535    -2.4350   -26.3939 c3            1 R1         0.110000
       2 C4          21.6977    -1.1931   -25.6613 ca            1 R1        -0.141300
       3 C5          22.6697    -1.4075   -24.6861 ca            1 R1        -0.081000
       4 C6          23.1733    -0.1816   -24.0790 ca            1 R1        -0.118000
       5 C7          22.7051     1.1028   -24.4211 ca            1 R1        -0.077000
       6 C8          21.6633     1.2853   -25.3338 cp            1 R1        -0.019000
       7 C9          21.0557     2.5980   -25.5849 cp            1 R1        -0.151300
       8 C10         21.7475     3.6541   -26.1191 ca            1 R1         0.403200
       9 N4          21.0819     4.8782   -26.4040 nb            1 R1        -0.624000
      10 C11         19.6644     5.0284   -26.2034 ca            1 R1         0.388200
      11 C12         18.9075     4.0047   -25.6745 ca            1 R1         0.013600
      12 C13         19.6167     2.7927   -25.3866 ca            1 R1        -0.130000
      13 C14         21.1387     0.0815   -25.9097 ca            1 R1        -0.107000
      14 N3          19.8282    -2.7242   -25.8701 nu            1 R1        -0.383200
      15 C2          18.9230    -2.7031   -26.8283 cz            1 R1         0.444600
      16 N2          17.6643    -2.9676   -26.6037 nv            1 R1        -0.474200
      17 N1          19.4935    -2.3082   -28.0549 n             1 R1        -0.407400
      18 C1          18.7788    -2.2284   -29.3301 c3            1 R1         0.057300
      19 C18         20.7931    -2.0564   -27.8632 c             1 R1         0.700500
      20 O1          21.4760    -1.4935   -28.6660 o             1 R1        -0.466500
      21 H6          23.1937    -2.3267   -24.4415 ha            1 R1         0.153000
      22 H7          23.9734    -0.2637   -23.3493 ha            1 R1         0.160000
      23 H8          22.8340     1.9910   -23.8096 ha            1 R1         0.161000
      24 H9          22.8181     3.5145   -26.2370 h4            1 R1         0.038100
      25 H10         19.1910     5.9520   -26.5233 h4            1 R1         0.054100
      26 H11         18.9955     2.0167   -24.9491 ha            1 R1         0.143000
      27 H12         20.2780     0.1213   -26.5709 ha            1 R1         0.124000
      28 H5          19.6561    -3.1012   -24.9469 hn            1 R1         0.344700
      29 H4          16.9425    -2.5804   -27.1980 hn            1 R1         0.331700
      30 H1          18.0783    -3.0589   -29.4815 h1            1 R1         0.083700
      31 H2          18.3482    -1.2194   -29.3374 h1            1 R1         0.083700
      32 H3          19.5369    -2.2026   -30.1226 h1            1 R1         0.083700
      33 H18         17.2804    -3.4433   -25.7971 hn            1 R1         0.331700
      34 F1          17.4671     3.8826   -25.5548 f             1 R1        -0.122900
      35 C15         21.3199    -3.8129   -25.2682 cx            1 R1        -0.181700
      36 C16         21.1256    -5.1428   -25.8874 cx            1 R1        -0.107900
      37 C17         22.5114    -4.6149   -25.8094 cx            1 R1        -0.107900
      38 H13         21.1348    -3.7627   -24.1982 hc            1 R1         0.111700
      39 H14         20.9270    -5.9179   -25.1516 hc            1 R1         0.094450
      40 H15         20.8516    -5.4009   -26.9071 hc            1 R1         0.094450
      41 H16         22.9882    -4.1877   -26.6878 hc            1 R1         0.094450
      42 H17         23.1539    -5.1226   -25.0946 hc            1 R1         0.094450
@<TRIPOS>BOND
       1       19       20 1
       2       36       37 1
       3       35       36 1
       4       35       37 1
       5       11       12 1
       6       11       34 1
       7       10       11 1
       8        9       10 1
       9        8        9 1
      10        7        8 1
      11        7       12 1
      12        6        7 1
      13        6       13 1
      14        5        6 1
      15        4        5 1
      16        3        4 1
      17        2        3 1
      18        2       13 1
      19        1        2 1
      20        1       35 1
      21        1       19 1
      22       14        1 1
      23       15       16 1
      24       15       14 1
      25       17       15 1
      26       17       19 1
      27       18       17 1
      28       37       41 1
      29       37       42 1
      30       36       39 1
      31       36       40 1
      32       35       38 1
      33       13       27 1
      34       12       26 1
      35       10       25 1
      36        8       24 1
      37        5       23 1
      38        4       22 1
      39        3       21 1
      40       14       28 1
      41       16       29 1
      42       16       33 1
      43       18       30 1
      44       18       31 1
      45       18       32 1
@<TRIPOS>SUBSTRUCTURE
       1 R1              1 RESIDUE    0 **** ROOT      0
