@<TRIPOS>MOLECULE
R1
45 48 1 0 1
SMALL
USER_CHARGES
@<TRIPOS>CRYSIN
   74.6251    74.6251    74.6251   109.4712   109.4712   109.4712  1  1
@<TRIPOS>ATOM
       1 C1          18.1377    -2.4237   -30.6090 c3            1 R1         0.056300
       2 N1          19.0627    -2.9223   -29.6153 n             1 R1        -0.400400
       3 C2          18.4827    -3.3455   -28.4335 cz            1 R1         0.441600
       4 N2          17.2603    -3.8529   -28.2774 nv            1 R1        -0.465200
       5 N3          19.4371    -3.3146   -27.4869 nu            1 R1        -0.369200
       6 C3          20.8156    -3.0835   -27.9777 c3            1 R1         0.129300
       7 C4          21.7414    -4.3080   -28.0013 ca            1 R1        -0.258600
       8 C5          22.8014    -4.4335   -28.8829 ca            1 R1        -0.060000
       9 C6          23.6432    -5.5270   -28.8033 ca            1 R1        -0.230300
      10 C7          23.4329    -6.4660   -27.7605 ca            1 R1         0.430200
      11 N4          22.3925    -6.3656   -26.9005 nb            1 R1        -0.649000
      12 C8          21.5744    -5.2646   -26.9795 ca            1 R1         0.420200
      13 C9          21.4570    -1.7560   -27.4401 ca            1 R1        -0.155300
      14 C10         22.8212    -1.7234   -27.0427 ca            1 R1        -0.105000
      15 C11         23.3500    -0.4455   -26.6756 ca            1 R1        -0.116000
      16 C12         22.6880     0.7243   -26.7986 ca            1 R1        -0.083000
      17 C13         21.3255     0.6942   -27.2035 cp            1 R1        -0.012000
      18 C14         20.5711     2.0026   -27.2633 cp            1 R1        -0.056000
      19 C15         21.1332     3.1630   -27.8527 ca            1 R1        -0.108000
      20 C16         20.6276     4.3539   -27.9558 ca            1 R1        -0.112000
      21 C17         19.3036     4.5063   -27.6652 ca            1 R1        -0.102000
      22 C18         18.5329     3.3996   -27.2350 ca            1 R1         0.017400
      23 Cl1         16.8496     3.6718   -26.7532 cl            1 R1        -0.078400
      24 C19         19.1985     2.1794   -27.0218 ca            1 R1        -0.118000
      25 C20         20.6999    -0.5538   -27.5187 ca            1 R1        -0.103000
      26 C21         20.4123    -2.7244   -29.4151 c             1 R1         0.705500
      27 O1          21.2107    -2.3273   -30.2598 o             1 R1        -0.473500
      28 H1          18.7481    -1.7828   -31.2571 h1            1 R1         0.085033
      29 H2          17.7458    -3.3281   -31.0907 h1            1 R1         0.085033
      30 H3          17.4051    -1.7658   -30.1254 h1            1 R1         0.085033
      31 H4          16.7751    -3.9140   -27.3915 hn            1 R1         0.332700
      32 H5          19.3404    -3.8212   -26.6162 hn            1 R1         0.335700
      33 H6          22.9632    -3.6891   -29.6569 ha            1 R1         0.167000
      34 H7          24.5529    -5.6208   -29.3890 ha            1 R1         0.169000
      35 H8          24.1062    -7.2990   -27.5813 h4            1 R1         0.048100
      36 H9          20.7234    -5.1572   -26.3134 h4            1 R1         0.018100
      37 H10         23.4528    -2.5867   -26.8555 ha            1 R1         0.145000
      38 H11         24.4094    -0.3107   -26.4784 ha            1 R1         0.158000
      39 H12         23.1814     1.6467   -26.5069 ha            1 R1         0.160000
      40 H13         22.1866     3.1285   -28.1266 ha            1 R1         0.143000
      41 H15         18.8766     5.4925   -27.8413 ha            1 R1         0.161000
      42 H16         18.5215     1.4426   -26.5997 ha            1 R1         0.135000
      43 H17         19.7013    -0.6478   -27.9352 ha            1 R1         0.143000
      44 H18         16.5855    -3.7268   -29.0210 hn            1 R1         0.332700
      45 H14         21.4235     5.4857   -27.7007 ha            1 R1         0.152000
@<TRIPOS>BOND
       1       26       27 1
       2       22       23 1
       3       22       24 1
       4       21       22 1
       5       20       21 1
       6       19       20 1
       7       18       19 1
       8       18       24 1
       9       17       18 1
      10       17       25 1
      11       16       17 1
      12       15       16 1
      13       14       15 1
      14       13       14 1
      15       13       25 1
      16       11       12 1
      17       10       11 1
      18        9       10 1
      19        8        9 1
      20        7        8 1
      21        7       12 1
      22        6        7 1
      23        6       13 1
      24        6       26 1
      25        5        6 1
      26        3        4 1
      27        3        5 1
      28        2        3 1
      29        2       26 1
      30        1        2 1
      31       25       43 1
      32       24       42 1
      33       21       41 1
      34       20       45 1
      35       19       40 1
      36       16       39 1
      37       15       38 1
      38       14       37 1
      39       12       36 1
      40       10       35 1
      41        9       34 1
      42        8       33 1
      43        5       32 1
      44        4       31 1
      45        4       44 1
      46        1       28 1
      47        1       29 1
      48        1       30 1
@<TRIPOS>SUBSTRUCTURE
       1 R1              1 RESIDUE    0 **** ROOT      0
