@<TRIPOS>MOLECULE
R1
45 48 1 0 1
SMALL
USER_CHARGES
@<TRIPOS>CRYSIN
   74.7794    74.7794    74.7794   109.4712   109.4712   109.4712  1  1
@<TRIPOS>ATOM
       1 C13         19.2396     3.2182   -25.9570 ca            1 R1         0.017400
       2 C12         19.9952     4.1127   -26.7707 ca            1 R1        -0.105000
       3 C11         21.2656     3.8336   -27.0991 ca            1 R1        -0.114000
       4 C10         21.7949     2.6630   -26.7079 ca            1 R1        -0.112000
       5 C9          21.0788     1.6541   -25.9416 cp            1 R1        -0.056000
       6 C8          21.6883     0.2687   -25.6517 cp            1 R1        -0.017000
       7 C7          22.8785     0.1944   -24.9375 ca            1 R1        -0.086000
       8 C6          23.5009    -1.0324   -24.6824 ca            1 R1        -0.117000
       9 C5          22.8374    -2.2106   -25.1340 ca            1 R1        -0.107000
      10 C4          21.5892    -2.1786   -25.7276 ca            1 R1        -0.126300
      11 C3          20.9554    -3.4613   -26.2564 c3            1 R1         0.014700
      12 C16         21.7012    -4.7737   -25.8499 ca            1 R1         0.324600
      13 N4          22.7023    -5.3187   -26.6926 nb            1 R1        -0.701000
      14 C20         23.4341    -6.4854   -26.2857 ca            1 R1         0.411200
      15 C19         23.0942    -7.1014   -25.0759 ca            1 R1        -0.202300
      16 C18         22.2205    -6.4770   -24.1807 ca            1 R1        -0.084000
      17 C17         21.4684    -5.3253   -24.5826 ca            1 R1        -0.179300
      18 N3          19.5824    -3.5671   -25.8159 nu            1 R1        -0.333200
      19 C2          18.6960    -3.4031   -26.8028 cz            1 R1         0.443600
      20 N2          17.3658    -3.5522   -26.7418 nv            1 R1        -0.462200
      21 N1          19.2966    -3.2053   -28.0405 n             1 R1        -0.395400
      22 C1          18.6750    -2.5380   -29.2374 c3            1 R1         0.058300
      23 C21         20.6499    -3.3091   -27.7895 c             1 R1         0.714500
      24 O1          21.5257    -3.1564   -28.6208 o             1 R1        -0.477500
      25 C15         21.0425    -0.9446   -26.1026 ca            1 R1        -0.102000
      26 C14         19.8305     2.0348   -25.5527 ca            1 R1        -0.118000
      27 H11         19.6513     5.0354   -27.2357 ha            1 R1         0.160000
      28 H9          22.7419     2.4044   -27.1793 ha            1 R1         0.141000
      29 H8          23.3221     1.1065   -24.5495 ha            1 R1         0.159000
      30 H7          24.4169    -1.1700   -24.1155 ha            1 R1         0.157000
      31 H6          23.4094    -3.1231   -24.9938 ha            1 R1         0.151000
      32 H17         24.0900    -6.8979   -27.0466 h4            1 R1         0.041100
      33 H16         23.6105    -8.0152   -24.7972 ha            1 R1         0.169000
      34 H15         22.0117    -7.0292   -23.2691 ha            1 R1         0.166000
      35 H14         20.6753    -4.9506   -23.9423 ha            1 R1         0.171000
      36 H5          19.2178    -3.7198   -24.8843 hn            1 R1         0.328700
      37 H18         16.7999    -3.4906   -27.5786 hn            1 R1         0.330700
      38 H3          18.7434    -1.4503   -29.1122 h1            1 R1         0.083033
      39 H1          19.0962    -2.9331   -30.1701 h1            1 R1         0.083033
      40 H2          17.6112    -2.8060   -29.2425 h1            1 R1         0.083033
      41 H13         20.2025    -0.8371   -26.7825 ha            1 R1         0.138000
      42 H12         19.2236     1.3449   -24.9739 ha            1 R1         0.142000
      43 H4          16.9437    -3.3530   -25.8439 hn            1 R1         0.330700
      44 Cl1         17.4057     3.6490   -25.8991 cl            1 R1        -0.075400
      45 H10         21.9969     4.9815   -27.1368 ha            1 R1         0.151000
@<TRIPOS>BOND
       1       23       24 1
       2       14       13 1
       3       15       14 1
       4       16       15 1
       5       17       16 1
       6       12       17 1
       7       12       13 1
       8        1       44 1
       9        1       26 1
      10        2        1 1
      11        3        2 1
      12        4        3 1
      13        5        4 1
      14        5       26 1
      15        6        5 1
      16        6       25 1
      17        7        6 1
      18        8        7 1
      19        9        8 1
      20       10        9 1
      21       10       25 1
      22       11       10 1
      23       11       12 1
      24       11       23 1
      25       18       11 1
      26       19       20 1
      27       19       18 1
      28       21       19 1
      29       21       23 1
      30       22       21 1
      31       14       32 1
      32       15       33 1
      33       16       34 1
      34       17       35 1
      35       25       41 1
      36       26       42 1
      37        2       27 1
      38        3       45 1
      39        4       28 1
      40        7       29 1
      41        8       30 1
      42        9       31 1
      43       18       36 1
      44       20       43 1
      45       20       37 1
      46       22       39 1
      47       22       40 1
      48       22       38 1
@<TRIPOS>SUBSTRUCTURE
       1 R1              1 RESIDUE    0 **** ROOT      0
