@<TRIPOS>MOLECULE
L1
39 41 1 0 1
SMALL
USER_CHARGES
@<TRIPOS>CRYSIN
   74.7131    74.7131    74.7131   109.4712   109.4712   109.4712  1  1
@<TRIPOS>ATOM
       1 C1          17.9547    -1.2940   -30.8612 c3            1 L1         0.056300
       2 N1          18.5696    -1.2973   -29.5180 n             1 L1        -0.400400
       3 C2          17.9042    -1.5874   -28.2994 cz            1 L1         0.433600
       4 N2          16.7047    -2.1986   -28.2130 nv            1 L1        -0.463200
       5 N3          18.8267    -1.5485   -27.2961 nu            1 L1        -0.361200
       6 C3          20.1946    -1.3915   -27.7578 c3            1 L1         0.052000
       7 C5          20.8220    -0.0575   -27.1412 ca            1 L1        -0.153300
       8 C6          22.1202     0.1344   -26.6915 ca            1 L1        -0.122000
       9 C7          22.6106     1.3585   -26.2728 ca            1 L1        -0.113000
      10 C8          21.8031     2.4575   -26.1368 ca            1 L1        -0.085000
      11 C9          20.5487     2.4483   -26.7446 cp            1 L1        -0.007000
      12 C10         19.8013     3.7004   -26.8583 cp            1 L1        -0.058000
      13 C11         20.4469     4.8596   -27.3211 ca            1 L1        -0.108000
      14 C12         19.7732     6.0321   -27.7383 ca            1 L1        -0.113000
      15 C13         18.3802     6.1125   -27.5898 ca            1 L1        -0.102000
      16 C14         17.6765     4.9717   -27.1127 ca            1 L1         0.018400
      17 C15         18.3799     3.7213   -26.7755 ca            1 L1        -0.115000
      18 C16         20.0858     1.1456   -27.2468 ca            1 L1        -0.100000
      19 C17         19.9270    -1.2235   -29.2312 c             1 L1         0.700500
      20 O1          20.7934    -1.1652   -30.1036 o             1 L1        -0.468500
      21 H1          17.1527    -2.0417   -30.8262 h1            1 L1         0.084700
      22 H2          17.5051    -0.3004   -30.9802 h1            1 L1         0.084700
      23 H3          18.5833    -1.5842   -31.7121 h1            1 L1         0.084700
      24 H4          16.3947    -2.3828   -27.2674 hn            1 L1         0.332700
      25 H5          18.6941    -2.0476   -26.4258 hn            1 L1         0.329700
      26 H9          22.8237    -0.6880   -26.7820 ha            1 L1         0.134000
      27 H10         23.6152     1.3477   -25.8605 ha            1 L1         0.157000
      28 H11         22.1782     3.3100   -25.5783 ha            1 L1         0.161000
      29 H12         21.5212     4.7566   -27.4428 ha            1 L1         0.143000
      30 H14         17.7745     6.9561   -27.9071 ha            1 L1         0.161000
      31 H15         17.8968     2.8454   -26.3526 ha            1 L1         0.137000
      32 H16         19.1696     1.0635   -27.8241 ha            1 L1         0.151000
      33 H17         15.9269    -1.9868   -28.8248 hn            1 L1         0.332700
      34 C4          21.1043    -2.6929   -27.4858 c3            1 L1        -0.098100
      35 Cl1         15.9043     4.9098   -27.2566 cl            1 L1        -0.077400
      36 H6          21.3504    -2.7268   -26.4173 hc            1 L1         0.080367
      37 H7          20.5401    -3.6281   -27.5884 hc            1 L1         0.080367
      38 H8          21.9864    -2.7776   -28.1324 hc            1 L1         0.080367
      39 H13         20.3605     6.8734   -28.0943 ha            1 L1         0.152000
@<TRIPOS>BOND
       1       19       20 1
       2       16       35 1
       3       16       17 1
       4       15       16 1
       5       14       15 1
       6       13       14 1
       7       12       13 1
       8       12       17 1
       9       11       12 1
      10       11       18 1
      11       10       11 1
      12        9       10 1
      13        8        9 1
      14        7        8 1
      15        7       18 1
      16        6       34 1
      17        6        7 1
      18        6       19 1
      19        5        6 1
      20        3        4 1
      21        3        5 1
      22        2        3 1
      23        2       19 1
      24        1        2 1
      25       18       32 1
      26       17       31 1
      27       15       30 1
      28       14       39 1
      29       13       29 1
      30       10       28 1
      31        9       27 1
      32        8       26 1
      33       34       36 1
      34       34       37 1
      35       34       38 1
      36        5       25 1
      37        4       24 1
      38        4       33 1
      39        1       21 1
      40        1       22 1
      41        1       23 1
@<TRIPOS>SUBSTRUCTURE
       1 L1              1 RESIDUE    0 **** ROOT      0
