@<TRIPOS>MOLECULE
R1
45 48 1 0 1
SMALL
USER_CHARGES
@<TRIPOS>CRYSIN
   74.6401    74.6401    74.6401   109.4712   109.4712   109.4712  1  1
@<TRIPOS>ATOM
       1 C16         17.9547    -1.2940   -30.8612 c3            1 R1         0.058300
       2 N4          18.5696    -1.2973   -29.5180 n             1 R1        -0.411300
       3 C15         17.9042    -1.5874   -28.2994 cz            1 R1         0.467400
       4 N3          16.7047    -2.1986   -28.2130 nv            1 R1        -0.472200
       5 N2          18.8267    -1.5485   -27.2961 nu            1 R1        -0.392100
       6 C11         20.1946    -1.3915   -27.7578 c3            1 R1         0.109000
       7 C10         20.8220    -0.0575   -27.1412 ca            1 R1        -0.140300
       8 C9          22.1202     0.1344   -26.6915 ca            1 R1        -0.126000
       9 C8          22.6106     1.3585   -26.2728 ca            1 R1        -0.113000
      10 C7          21.8031     2.4575   -26.1368 ca            1 R1        -0.090000
      11 C6          20.5487     2.4483   -26.7446 cp            1 R1         0.001000
      12 C5          19.8013     3.7004   -26.8583 cp            1 R1        -0.184300
      13 C4          20.4469     4.8596   -27.3211 ca            1 R1         0.412200
      14 N1          19.7732     6.0321   -27.7383 nb            1 R1        -0.647000
      15 C3          18.3802     6.1125   -27.5898 ca            1 R1         0.414200
      16 C2          17.6765     4.9717   -27.1127 ca            1 R1        -0.182600
      17 C19         18.3799     3.7213   -26.7755 ca            1 R1        -0.081000
      18 C18         20.0858     1.1456   -27.2468 ca            1 R1        -0.110000
      19 C17         19.9270    -1.2235   -29.2312 c             1 R1         0.705500
      20 O1          20.7934    -1.1652   -30.1036 o             1 R1        -0.476500
      21 H16         17.1527    -2.0417   -30.8262 h1            1 R1         0.083700
      22 H17         17.5051    -0.3004   -30.9802 h1            1 R1         0.083700
      23 H18         18.5833    -1.5842   -31.7121 h1            1 R1         0.083700
      24 H21         16.3947    -2.3828   -27.2674 hn            1 R1         0.331700
      25 H14         18.6941    -2.0476   -26.4258 hn            1 R1         0.339700
      26 H8          22.8237    -0.6880   -26.7820 ha            1 R1         0.124000
      27 H7          23.6152     1.3477   -25.8605 ha            1 R1         0.155000
      28 H6          22.1782     3.3100   -25.5783 ha            1 R1         0.161000
      29 H5          21.5212     4.7566   -27.4428 h4            1 R1         0.027100
      30 H4          17.7745     6.9561   -27.9071 h4            1 R1         0.037100
      31 H20         17.8968     2.8454   -26.3526 ha            1 R1         0.135000
      32 H19         19.1696     1.0635   -27.8241 ha            1 R1         0.161000
      33 H15         15.9269    -1.9868   -28.8248 hn            1 R1         0.331700
      34 C1          16.0403     4.7480   -26.9404 c3            1 R1        -0.055800
      35 C12         20.9223    -2.6942   -27.3411 cx            1 R1        -0.182700
      36 C13         20.7725    -3.3892   -26.0082 cx            1 R1        -0.094900
      37 C14         20.1684    -4.0569   -27.1768 cx            1 R1        -0.094900
      38 H1          15.6638     4.1154   -27.7536 hc            1 R1         0.054367
      39 H2          15.8841     4.2102   -25.9971 hc            1 R1         0.054367
      40 H3          15.5632     5.7309   -26.8410 hc            1 R1         0.054367
      41 H9          21.8234    -2.8080   -27.9384 hc            1 R1         0.098700
      42 H10         21.7179    -3.7996   -25.6626 hc            1 R1         0.093950
      43 H11         20.0621    -3.0104   -25.2779 hc            1 R1         0.093950
      44 H12         19.0844    -4.1304   -27.1424 hc            1 R1         0.093950
      45 H13         20.6271    -4.9672   -27.5542 hc            1 R1         0.093950
@<TRIPOS>BOND
       1       19       20 1
       2        2        1 1
       3        2       19 1
       4        3        4 1
       5        3        2 1
       6        5        3 1
       7       36       37 1
       8       35       36 1
       9       35       37 1
      10        6       35 1
      11        6        5 1
      12        6       19 1
      13        7        6 1
      14        7       18 1
      15        8        7 1
      16        9        8 1
      17       10        9 1
      18       11       10 1
      19       11       18 1
      20       12       11 1
      21       12       17 1
      22       13       12 1
      23       14       13 1
      24       15       14 1
      25       16       15 1
      26       16       17 1
      27       34       16 1
      28       17       31 1
      29       18       32 1
      30        1       21 1
      31        1       22 1
      32        1       23 1
      33        4       33 1
      34        4       24 1
      35        5       25 1
      36       37       44 1
      37       37       45 1
      38       36       42 1
      39       36       43 1
      40       35       41 1
      41        8       26 1
      42        9       27 1
      43       10       28 1
      44       13       29 1
      45       15       30 1
      46       34       38 1
      47       34       39 1
      48       34       40 1
@<TRIPOS>SUBSTRUCTURE
       1 R1              1 RESIDUE    0 **** ROOT      0
