@<TRIPOS>MOLECULE
R1
42 45 1 0 1
SMALL
USER_CHARGES
@<TRIPOS>CRYSIN
   74.6724    74.6724    74.6724   109.4712   109.4712   109.4712  1  1
@<TRIPOS>ATOM
       1 C1          18.0767    -2.1268   -29.5133 c3            1 R1         0.057300
       2 N1          18.8820    -2.5194   -28.4093 n             1 R1        -0.407400
       3 C2          18.4647    -2.7926   -27.1287 cz            1 R1         0.444600
       4 N2          17.2356    -2.8733   -26.7480 nv            1 R1        -0.474200
       5 N3          19.5619    -2.9798   -26.3560 nu            1 R1        -0.383200
       6 C3          20.8377    -2.8474   -27.0119 c3            1 R1         0.110000
       7 C4          21.5708    -1.6097   -26.5386 ca            1 R1        -0.141300
       8 C5          22.9271    -1.6467   -26.0600 ca            1 R1        -0.081000
       9 C6          23.6504    -0.5154   -25.6516 ca            1 R1        -0.118000
      10 C7          23.0328     0.7439   -25.8407 ca            1 R1        -0.077000
      11 C8          21.6883     0.8869   -26.2040 cp            1 R1        -0.019000
      12 C9          20.9488     2.1587   -26.3100 cp            1 R1        -0.151300
      13 C10         21.5912     3.3646   -26.6670 ca            1 R1         0.403200
      14 N4          20.8537     4.5906   -26.7299 nb            1 R1        -0.624000
      15 C11         19.4911     4.5744   -26.4314 ca            1 R1         0.388200
      16 C12         18.8613     3.4321   -25.9557 ca            1 R1         0.013600
      17 C13         19.6364     2.2463   -25.9494 ca            1 R1        -0.130000
      18 C14         20.9541    -0.3263   -26.4394 ca            1 R1        -0.107000
      19 C18         20.2806    -2.5055   -28.4274 c             1 R1         0.700500
      20 O1          20.9109    -2.2868   -29.4461 o             1 R1        -0.466500
      21 H2          17.4501    -3.0126   -29.6752 h1            1 R1         0.083700
      22 H3          17.5113    -1.2116   -29.2984 h1            1 R1         0.083700
      23 H1          18.6350    -1.8293   -30.4095 h1            1 R1         0.083700
      24 H4          16.3818    -2.7417   -27.2751 hn            1 R1         0.331700
      25 H5          19.4956    -3.4090   -25.4419 hn            1 R1         0.344700
      26 H6          23.5024    -2.5601   -25.9410 ha            1 R1         0.153000
      27 H7          24.6825    -0.5568   -25.3164 ha            1 R1         0.160000
      28 H8          23.6242     1.6015   -25.5338 ha            1 R1         0.161000
      29 H9          22.6114     3.3892   -27.0384 h4            1 R1         0.038100
      30 H10         18.8539     5.4533   -26.4021 h4            1 R1         0.054100
      31 H11         19.1439     1.3956   -25.4877 ha            1 R1         0.143000
      32 H12         19.9099    -0.3842   -26.7321 ha            1 R1         0.124000
      33 H18         16.9911    -2.9230   -25.7673 hn            1 R1         0.331700
      34 F1          17.6929     3.6572   -25.3436 f             1 R1        -0.122900
      35 C15         21.2251    -4.1434   -26.2503 cx            1 R1        -0.181700
      36 C16         20.8387    -5.4426   -26.8441 cx            1 R1        -0.107900
      37 C17         22.2194    -4.9551   -27.0917 cx            1 R1        -0.107900
      38 H13         21.3086    -4.1300   -25.1665 hc            1 R1         0.111700
      39 H14         20.7985    -6.2401   -26.1066 hc            1 R1         0.094450
      40 H15         20.3153    -5.6534   -27.7732 hc            1 R1         0.094450
      41 H16         22.4823    -4.5069   -28.0464 hc            1 R1         0.094450
      42 H17         22.9986    -5.5072   -26.5723 hc            1 R1         0.094450
@<TRIPOS>BOND
       1       19       20 1
       2       36       37 1
       3       35       36 1
       4       35       37 1
       5       16       17 1
       6       16       34 1
       7       15       16 1
       8       14       15 1
       9       13       14 1
      10       12       13 1
      11       12       17 1
      12       11       12 1
      13       11       18 1
      14       10       11 1
      15        9       10 1
      16        8        9 1
      17        7        8 1
      18        7       18 1
      19        6        7 1
      20        6       35 1
      21        6       19 1
      22        5        6 1
      23        3        4 1
      24        3        5 1
      25        2        3 1
      26        2       19 1
      27        1        2 1
      28       37       41 1
      29       37       42 1
      30       36       39 1
      31       36       40 1
      32       35       38 1
      33       18       32 1
      34       17       31 1
      35       15       30 1
      36       13       29 1
      37       10       28 1
      38        9       27 1
      39        8       26 1
      40        5       25 1
      41        4       24 1
      42        4       33 1
      43        1       23 1
      44        1       21 1
      45        1       22 1
@<TRIPOS>SUBSTRUCTURE
       1 R1              1 RESIDUE    0 **** ROOT      0
