@<TRIPOS>MOLECULE
R1
45 48 1 0 1
SMALL
USER_CHARGES
@<TRIPOS>CRYSIN
   74.6401    74.6401    74.6401   109.4712   109.4712   109.4712  1  1
@<TRIPOS>ATOM
       1 C2          18.7806     4.5201   -26.9413 ca            1 R1        -0.182600
       2 C3          19.5250     5.4272   -27.7442 ca            1 R1         0.414200
       3 N1          20.7031     5.1327   -28.2786 nb            1 R1        -0.647000
       4 C4          21.2740     3.9949   -27.9376 ca            1 R1         0.412200
       5 C5          20.6038     2.9363   -27.2191 cp            1 R1        -0.184300
       6 C6          21.3093     1.6146   -26.9411 cp            1 R1         0.001000
       7 C7          22.6190     1.5786   -26.4747 ca            1 R1        -0.090000
       8 C8          23.1617     0.3146   -26.2895 ca            1 R1        -0.113000
       9 C9          22.5140    -0.8729   -26.5772 ca            1 R1        -0.126000
      10 C10         21.1540    -0.8792   -26.8855 ca            1 R1        -0.140300
      11 C11         20.4561    -2.1656   -27.2981 c3            1 R1         0.109000
      12 C12         20.9949    -3.3944   -26.6852 cx            1 R1        -0.182700
      13 C13         20.7771    -4.7327   -27.3587 cx            1 R1        -0.094900
      14 C14         22.1657    -4.1843   -27.2166 cx            1 R1        -0.094900
      15 N2          19.0424    -2.1384   -26.7426 nu            1 R1        -0.392100
      16 C15         18.1634    -2.1255   -27.7148 cz            1 R1         0.467400
      17 N3          16.9149    -2.2758   -27.5795 nv            1 R1        -0.472200
      18 N4          18.7199    -2.0533   -28.9265 n             1 R1        -0.411300
      19 C16         18.1391    -1.6936   -30.2328 c3            1 R1         0.058300
      20 C17         20.1064    -2.2083   -28.7639 c             1 R1         0.705500
      21 O1          20.8909    -2.5552   -29.6689 o             1 R1        -0.476500
      22 C18         20.6154     0.4104   -27.0895 ca            1 R1        -0.110000
      23 C19         19.3533     3.3522   -26.6096 ca            1 R1        -0.081000
      24 H4          19.1715     6.4483   -27.8796 h4            1 R1         0.037100
      25 H5          22.2318     3.9109   -28.4489 h4            1 R1         0.027100
      26 H6          23.1547     2.4967   -26.2525 ha            1 R1         0.161000
      27 H7          24.1993     0.2809   -25.9708 ha            1 R1         0.155000
      28 H8          22.9872    -1.7721   -26.1938 ha            1 R1         0.124000
      29 H9          21.0102    -3.5539   -25.6101 hc            1 R1         0.098700
      30 H10         20.5919    -5.6056   -26.7378 hc            1 R1         0.093950
      31 H11         20.4212    -4.8165   -28.3824 hc            1 R1         0.093950
      32 H12         22.4319    -3.7667   -28.1842 hc            1 R1         0.093950
      33 H13         22.8767    -4.5190   -26.4656 hc            1 R1         0.093950
      34 H14         18.8635    -2.5851   -25.8523 hn            1 R1         0.339700
      35 H15         16.2514    -1.9608   -28.2757 hn            1 R1         0.331700
      36 H17         18.3252    -2.4128   -31.0400 h1            1 R1         0.083700
      37 H18         17.0560    -1.5611   -30.1198 h1            1 R1         0.083700
      38 H16         18.4874    -0.6859   -30.4906 h1            1 R1         0.083700
      39 H19         19.5761     0.5266   -27.3822 ha            1 R1         0.161000
      40 H20         18.8651     2.7011   -25.8905 ha            1 R1         0.135000
      41 H21         16.4749    -2.3845   -26.6747 hn            1 R1         0.331700
      42 C1          17.0864     4.4075   -26.6635 c3            1 R1        -0.055800
      43 H1          16.5811     3.7882   -27.4149 hc            1 R1         0.054367
      44 H2          16.9791     3.9102   -25.6916 hc            1 R1         0.054367
      45 H3          16.7044     5.4299   -26.5533 hc            1 R1         0.054367
@<TRIPOS>BOND
       1       20       21 1
       2       18       19 1
       3       18       20 1
       4       16       17 1
       5       16       18 1
       6       15       16 1
       7       13       14 1
       8       12       13 1
       9       12       14 1
      10       11       12 1
      11       11       15 1
      12       11       20 1
      13       10       11 1
      14       10       22 1
      15        9       10 1
      16        8        9 1
      17        7        8 1
      18        6        7 1
      19        6       22 1
      20        5        6 1
      21        5       23 1
      22        4        5 1
      23        3        4 1
      24        2        3 1
      25        1        2 1
      26        1       23 1
      27       42        1 1
      28       23       40 1
      29       22       39 1
      30       19       38 1
      31       19       36 1
      32       19       37 1
      33       17       35 1
      34       17       41 1
      35       15       34 1
      36       14       32 1
      37       14       33 1
      38       13       30 1
      39       13       31 1
      40       12       29 1
      41        9       28 1
      42        8       27 1
      43        7       26 1
      44        4       25 1
      45        2       24 1
      46       42       43 1
      47       42       44 1
      48       42       45 1
@<TRIPOS>SUBSTRUCTURE
       1 R1              1 RESIDUE    0 **** ROOT      0
