@<TRIPOS>MOLECULE
L1
47 50 1 0 1
SMALL
USER_CHARGES
@<TRIPOS>CRYSIN
   74.8406    74.8406    74.8406   109.4712   109.4712   109.4712  1  1
@<TRIPOS>ATOM
       1 C2          18.7775     5.1838   -25.7831 ca            1 L1         0.132100
       2 C3          19.4806     6.2837   -26.4713 ca            1 L1        -0.183000
       3 C4          20.8139     6.2690   -26.7644 ca            1 L1        -0.087000
       4 C5          21.4921     5.0708   -26.7389 ca            1 L1        -0.146000
       5 C6          20.8732     3.9075   -26.1347 cp            1 L1        -0.038000
       6 C7          21.5836     2.5995   -26.2254 cp            1 L1        -0.004000
       7 C8          22.9018     2.3698   -25.8011 ca            1 L1        -0.088000
       8 C9          23.5670     1.1883   -26.0058 ca            1 L1        -0.116000
       9 C10         22.8890     0.1795   -26.7310 ca            1 L1        -0.129000
      10 C11         21.4951     0.1703   -26.9419 ca            1 L1        -0.145300
      11 C12         20.6319    -0.9462   -27.4742 c3            1 L1         0.106000
      12 C13         21.4039    -2.3362   -27.3533 cx            1 L1        -0.178700
      13 C14         21.5691    -3.0005   -25.9821 cx            1 L1        -0.095400
      14 C15         20.8161    -3.6280   -27.1396 cx            1 L1        -0.095400
      15 N1          19.3355    -1.1227   -26.8357 nu            1 L1        -0.386100
      16 C16         18.2921    -0.7534   -27.5812 cz            1 L1         0.463400
      17 N2          17.0920    -1.2439   -27.3643 nv            1 L1        -0.471200
      18 N3          18.7039    -0.5634   -28.8879 n             1 L1        -0.409300
      19 C17         17.7832    -0.3553   -30.0176 c3            1 L1         0.057300
      20 C18         20.0881    -0.5865   -28.8887 c             1 L1         0.703500
      21 O2          20.7648    -0.4075   -29.8848 o             1 L1        -0.471500
      22 C19         20.8855     1.4139   -26.6930 ca            1 L1        -0.107000
      23 C20         19.5754     4.0189   -25.4753 ca            1 L1        -0.146000
      24 H4          18.9008     7.1954   -26.5814 ha            1 L1         0.150000
      25 H5          21.2427     7.1882   -27.1524 ha            1 L1         0.146000
      26 H6          22.5122     4.9231   -27.0811 ha            1 L1         0.139000
      27 H7          23.5358     3.1399   -25.3716 ha            1 L1         0.161000
      28 H8          24.5873     1.0949   -25.6459 ha            1 L1         0.153000
      29 H9          23.4229    -0.7369   -26.9643 ha            1 L1         0.125000
      30 H10         22.2760    -2.4866   -27.9845 hc            1 L1         0.098700
      31 H11         22.5602    -3.3883   -25.7607 hc            1 L1         0.093450
      32 H12         21.0183    -2.5694   -25.1500 hc            1 L1         0.093450
      33 H13         19.7425    -3.7221   -26.9984 hc            1 L1         0.093450
      34 H14         21.3662    -4.5088   -27.4609 hc            1 L1         0.093450
      35 H15         19.2921    -1.4478   -25.8783 hn            1 L1         0.334700
      36 H16         16.2932    -0.8682   -27.8593 hn            1 L1         0.330700
      37 H17         17.9650     0.6479   -30.4227 h1            1 L1         0.083700
      38 H18         16.7312    -0.5377   -29.7660 h1            1 L1         0.083700
      39 H19         18.0732    -1.0008   -30.8558 h1            1 L1         0.083700
      40 H20         19.8436     1.5106   -26.9836 ha            1 L1         0.162000
      41 H21         19.1126     3.1550   -25.0074 ha            1 L1         0.143000
      42 H22         16.8213    -1.3224   -26.3923 hn            1 L1         0.330700
      43 C1          16.5462     6.0997   -26.0754 c3            1 L1         0.110700
      44 O1          17.4735     5.2479   -25.3542 os            1 L1        -0.328900
      45 H1          16.7511     7.1466   -25.8197 h1            1 L1         0.051367
      46 H2          16.6272     5.9929   -27.1642 h1            1 L1         0.051367
      47 H3          15.5323     5.8332   -25.7524 h1            1 L1         0.051367
@<TRIPOS>BOND
       1       20       21 1
       2       18       19 1
       3       18       20 1
       4       16       17 1
       5       16       18 1
       6       15       16 1
       7       13       14 1
       8       12       13 1
       9       12       14 1
      10       11       12 1
      11       11       15 1
      12       11       20 1
      13       10       11 1
      14       10       22 1
      15        9       10 1
      16        8        9 1
      17        7        8 1
      18        6        7 1
      19        6       22 1
      20        5        6 1
      21        5       23 1
      22        4        5 1
      23        3        4 1
      24        2        3 1
      25        1        2 1
      26        1       23 1
      27       44        1 1
      28       43       44 1
      29       23       41 1
      30       22       40 1
      31       19       37 1
      32       19       38 1
      33       19       39 1
      34       17       36 1
      35       17       42 1
      36       15       35 1
      37       14       33 1
      38       14       34 1
      39       13       31 1
      40       13       32 1
      41       12       30 1
      42        9       29 1
      43        8       28 1
      44        7       27 1
      45        4       26 1
      46        3       25 1
      47        2       24 1
      48       43       45 1
      49       43       46 1
      50       43       47 1
@<TRIPOS>SUBSTRUCTURE
       1 L1              1 RESIDUE    0 **** ROOT      0
