@<TRIPOS>MOLECULE
R1
43 46 1 0 1
SMALL
USER_CHARGES
@<TRIPOS>CRYSIN
   74.8183    74.8183    74.8183   109.4712   109.4712   109.4712  1  1
@<TRIPOS>ATOM
       1 C13         18.7775     5.1838   -25.7831 ca            1 R1         0.017400
       2 C12         19.4806     6.2837   -26.4713 ca            1 R1        -0.102000
       3 C11         20.8139     6.2690   -26.7644 ca            1 R1        -0.114000
       4 C10         21.4921     5.0708   -26.7389 ca            1 R1        -0.110000
       5 C9          20.8732     3.9075   -26.1347 cp            1 R1        -0.060000
       6 C8          21.5836     2.5995   -26.2254 cp            1 R1        -0.006000
       7 C7          22.9018     2.3698   -25.8011 ca            1 R1        -0.089000
       8 C6          23.5670     1.1883   -26.0058 ca            1 R1        -0.115000
       9 C5          22.8890     0.1795   -26.7310 ca            1 R1        -0.126000
      10 C4          21.4951     0.1703   -26.9419 ca            1 R1        -0.142300
      11 C3          20.6319    -0.9462   -27.4742 c3            1 R1         0.107000
      12 C16         21.4039    -2.3362   -27.3533 cx            1 R1        -0.179700
      13 C17         21.5691    -3.0005   -25.9821 cx            1 R1        -0.095400
      14 C18         20.8161    -3.6280   -27.1396 cx            1 R1        -0.095400
      15 N3          19.3355    -1.1227   -26.8357 nu            1 R1        -0.373200
      16 C2          18.2921    -0.7534   -27.5812 cz            1 R1         0.442600
      17 N2          17.0920    -1.2439   -27.3643 nv            1 R1        -0.471200
      18 N1          18.7039    -0.5634   -28.8879 n             1 R1        -0.403400
      19 C1          17.7832    -0.3553   -30.0176 c3            1 R1         0.057300
      20 C19         20.0881    -0.5865   -28.8887 c             1 R1         0.703500
      21 O1          20.7648    -0.4075   -29.8848 o             1 R1        -0.473500
      22 C15         20.8855     1.4139   -26.6930 ca            1 R1        -0.108000
      23 C14         19.5754     4.0189   -25.4753 ca            1 R1        -0.113000
      24 H11         18.9008     7.1954   -26.5814 ha            1 R1         0.161000
      25 H10         21.2427     7.1882   -27.1524 ha            1 R1         0.151000
      26 H9          22.5122     4.9231   -27.0811 ha            1 R1         0.141000
      27 H8          23.5358     3.1399   -25.3716 ha            1 R1         0.160000
      28 H7          24.5873     1.0949   -25.6459 ha            1 R1         0.155000
      29 H6          23.4229    -0.7369   -26.9643 ha            1 R1         0.125000
      30 H14         22.2760    -2.4866   -27.9845 hc            1 R1         0.099700
      31 H15         22.5602    -3.3883   -25.7607 hc            1 R1         0.093450
      32 H16         21.0183    -2.5694   -25.1500 hc            1 R1         0.093450
      33 H17         19.7425    -3.7221   -26.9984 hc            1 R1         0.093450
      34 H18         21.3662    -4.5088   -27.4609 hc            1 R1         0.093450
      35 H5          19.2921    -1.4478   -25.8783 hn            1 R1         0.336700
      36 H4          16.2932    -0.8682   -27.8593 hn            1 R1         0.331700
      37 H3          17.9650     0.6479   -30.4227 h1            1 R1         0.084033
      38 H2          16.7312    -0.5377   -29.7660 h1            1 R1         0.084033
      39 H1          18.0732    -1.0008   -30.8558 h1            1 R1         0.084033
      40 H13         19.8436     1.5106   -26.9836 ha            1 R1         0.162000
      41 H12         19.1126     3.1550   -25.0074 ha            1 R1         0.141000
      42 H19         16.8213    -1.3224   -26.3923 hn            1 R1         0.331700
      43 Cl1         17.1786     5.8242   -25.4568 cl            1 R1        -0.074400
@<TRIPOS>BOND
       1       20       21 1
       2       13       14 1
       3       12       13 1
       4       12       14 1
       5        1       23 1
       6        1       43 1
       7        2        1 1
       8        3        2 1
       9        4        3 1
      10        5        4 1
      11        5       23 1
      12        6        5 1
      13        6       22 1
      14        7        6 1
      15        8        7 1
      16        9        8 1
      17       10        9 1
      18       10       22 1
      19       11       10 1
      20       11       12 1
      21       11       20 1
      22       15       11 1
      23       16       17 1
      24       16       15 1
      25       18       16 1
      26       18       20 1
      27       19       18 1
      28       14       33 1
      29       14       34 1
      30       13       31 1
      31       13       32 1
      32       12       30 1
      33       22       40 1
      34       23       41 1
      35        2       24 1
      36        3       25 1
      37        4       26 1
      38        7       27 1
      39        8       28 1
      40        9       29 1
      41       15       35 1
      42       17       36 1
      43       17       42 1
      44       19       39 1
      45       19       38 1
      46       19       37 1
@<TRIPOS>SUBSTRUCTURE
       1 R1              1 RESIDUE    0 **** ROOT      0
