@<TRIPOS>MOLECULE
L1
46 49 1 0 1
SMALL
USER_CHARGES
@<TRIPOS>CRYSIN
   74.6977    74.6977    74.6977   109.4712   109.4712   109.4712  1  1
@<TRIPOS>ATOM
       1 C1          17.7767    -2.1826   -29.8542 c3            1 L1         0.058300
       2 N1          18.5377    -2.2058   -28.6065 n             1 L1        -0.404400
       3 C2          17.9959    -2.4935   -27.3456 cz            1 L1         0.445600
       4 N2          16.7270    -2.8317   -27.0788 nv            1 L1        -0.472200
       5 N3          18.9424    -2.3917   -26.4391 nu            1 L1        -0.374200
       6 C3          20.2620    -2.0083   -26.9326 c3            1 L1         0.129300
       7 C4          21.2430    -3.1999   -26.7289 ca            1 L1        -0.151300
       8 C5          20.9887    -4.3043   -25.8291 ca            1 L1        -0.103000
       9 C6          21.9358    -5.3242   -25.6666 ca            1 L1        -0.119000
      10 C7          23.1674    -5.3272   -26.3567 ca            1 L1        -0.088000
      11 C8          23.5100    -4.2060   -27.1963 ca            1 L1        -0.119000
      12 C9          22.5712    -3.1446   -27.2531 ca            1 L1        -0.103000
      13 C10         20.7068    -0.7057   -26.2012 ca            1 L1        -0.136300
      14 C11         21.6004    -0.7264   -25.1110 ca            1 L1        -0.103000
      15 C12         21.9939     0.4316   -24.4263 ca            1 L1        -0.113000
      16 C13         21.5315     1.6355   -24.9662 ca            1 L1        -0.089000
      17 C14         20.6607     1.7257   -26.0249 cp            1 L1        -0.015000
      18 C15         20.1462     3.0315   -26.4933 cp            1 L1        -0.066000
      19 C16         20.9736     4.0857   -26.9642 ca            1 L1        -0.116000
      20 C17         20.4655     5.3856   -27.2054 ca            1 L1        -0.124500
      21 C18         19.0782     5.6662   -27.0110 ca            1 L1        -0.110000
      22 C19         18.2598     4.6565   -26.5389 ca            1 L1        -0.124500
      23 C20         18.7920     3.3553   -26.3015 ca            1 L1        -0.116000
      24 C21         20.2221     0.5578   -26.5887 ca            1 L1        -0.110000
      25 C22         19.8501    -1.7614   -28.4055 c             1 L1         0.707500
      26 O1          20.5727    -1.2118   -29.2137 o             1 L1        -0.476500
      27 H1          18.3218    -2.4599   -30.7649 h1            1 L1         0.083033
      28 H2          17.1401    -3.0720   -29.7697 h1            1 L1         0.083033
      29 H3          17.2146    -1.2418   -29.9038 h1            1 L1         0.083033
      30 H4          16.3100    -3.0354   -26.1795 hn            1 L1         0.330700
      31 H5          18.7613    -2.2789   -25.4498 hn            1 L1         0.339700
      32 H6          20.0613    -4.4045   -25.2730 ha            1 L1         0.141000
      33 H7          21.6494    -6.1914   -25.0790 ha            1 L1         0.156000
      34 H8          23.7939    -6.2013   -26.2059 ha            1 L1         0.157000
      35 H9          24.4947    -4.1475   -27.6506 ha            1 L1         0.156000
      36 H10         22.8796    -2.2387   -27.7666 ha            1 L1         0.141000
      37 H11         21.8777    -1.7291   -24.7994 ha            1 L1         0.159000
      38 H12         22.6523     0.3740   -23.5646 ha            1 L1         0.157000
      39 H13         21.9112     2.5472   -24.5145 ha            1 L1         0.158000
      40 H14         21.9633     3.8348   -27.3342 ha            1 L1         0.131000
      41 H16         18.6598     6.6255   -27.3011 ha            1 L1         0.145000
      42 H18         18.0765     2.6994   -25.8145 ha            1 L1         0.131000
      43 H19         19.3757     0.5923   -27.2682 ha            1 L1         0.128000
      44 H20         16.0186    -2.5506   -27.7446 hn            1 L1         0.330700
      45 H15         21.0870     6.1387   -27.6808 ha            1 L1         0.142500
      46 H17         17.1943     4.7849   -26.3729 ha            1 L1         0.142500
@<TRIPOS>BOND
       1       25       26 1
       2       22       23 1
       3       21       22 1
       4       20       21 1
       5       19       20 1
       6       18       19 1
       7       18       23 1
       8       17       18 1
       9       17       24 1
      10       16       17 1
      11       15       16 1
      12       14       15 1
      13       13       14 1
      14       13       24 1
      15       11       12 1
      16       10       11 1
      17        9       10 1
      18        8        9 1
      19        7        8 1
      20        7       12 1
      21        6        7 1
      22        6       13 1
      23        6       25 1
      24        5        6 1
      25        3        4 1
      26        3        5 1
      27        2        3 1
      28        2       25 1
      29        1        2 1
      30       24       43 1
      31       23       42 1
      32       22       46 1
      33       21       41 1
      34       20       45 1
      35       19       40 1
      36       16       39 1
      37       15       38 1
      38       14       37 1
      39       12       36 1
      40       11       35 1
      41       10       34 1
      42        9       33 1
      43        8       32 1
      44        5       31 1
      45        4       30 1
      46        4       44 1
      47        1       27 1
      48        1       28 1
      49        1       29 1
@<TRIPOS>SUBSTRUCTURE
       1 L1              1 RESIDUE    0 **** ROOT      0
