@<TRIPOS>MOLECULE
L1
   42    45     1     0     0
SMALL
bcc


@<TRIPOS>ATOM
      1 C1          11.7980    -2.3770     1.0760 c3         1 L1        0.058300
      2 N1          13.1460    -2.6840     0.5800 n          1 L1       -0.407400
      3 C2          14.2820    -2.6160     1.2890 cz         1 L1        0.444600
      4 N2          14.3880    -2.3330     2.5930 nv         1 L1       -0.476200
      5 N3          15.3450    -2.8870     0.5330 nu         1 L1       -0.382200
      6 C3          15.0000    -3.2010    -0.8470 c3         1 L1        0.111000
      7 C4          15.5360    -2.1320    -1.8180 ca         1 L1       -0.144300
      8 C5          16.1100    -2.4880    -3.0610 ca         1 L1       -0.084000
      9 C6          16.5410    -1.4920    -3.9510 ca         1 L1       -0.117000
     10 C7          16.3830    -0.1350    -3.6260 ca         1 L1       -0.080000
     11 C8          15.8370     0.2630    -2.3870 cp         1 L1       -0.011000
     12 C9          15.6540     1.6970    -2.0540 cp         1 L1       -0.184300
     13 C10         15.2130     2.1200    -0.7820 ca         1 L1       -0.085000
     14 C11         15.1200     3.4930    -0.4930 ca         1 L1       -0.244300
     15 C12         15.4610     4.4150    -1.4940 ca         1 L1        0.415200
     16 N4          15.8430     4.0420    -2.7280 nb         1 L1       -0.648000
     17 C13         15.9330     2.7220    -2.9850 ca         1 L1        0.419200
     18 C14         15.4330    -0.7560    -1.4910 ca         1 L1       -0.112000
     19 C15         15.5630    -4.6030    -1.1360 cx         1 L1       -0.177700
     20 C16         14.9340    -5.8830    -0.6200 cx         1 L1       -0.107900
     21 C17         14.9470    -5.5940    -2.1010 cx         1 L1       -0.107900
     22 C18         13.4640    -3.0780    -0.7580 c          1 L1        0.701500
     23 O1          12.6270    -3.2370    -1.6520 o          1 L1       -0.466500
     24 H1          11.6620    -1.2960     1.1110 h1         1 L1        0.083367
     25 H2          11.0250    -2.7980     0.4320 h1         1 L1        0.083367
     26 H3          11.6580    -2.7730     2.0820 h1         1 L1        0.083367
     27 H4          13.6130    -2.0580     3.1930 hn         1 L1        0.331200
     28 H5          16.3120    -2.8620     0.8620 hn         1 L1        0.344700
     29 H6          16.2240    -3.5180    -3.3680 ha         1 L1        0.152000
     30 H7          16.9790    -1.7690    -4.9000 ha         1 L1        0.159000
     31 H8          16.6910     0.6000    -4.3530 ha         1 L1        0.161000
     32 H9          14.9810     1.4010    -0.0100 ha         1 L1        0.127000
     33 H10         14.8170     3.8390     0.4830 ha         1 L1        0.152000
     34 H11         15.4210     5.4770    -1.3020 h4         1 L1        0.038100
     35 H12         16.2300     2.4770    -3.9890 h4         1 L1        0.032100
     36 H13         14.9900    -0.4730    -0.5470 ha         1 L1        0.122000
     37 H14         16.6500    -4.6080    -1.1160 hc         1 L1        0.111700
     38 H15         13.9730    -5.8330    -0.1110 hc         1 L1        0.093950
     39 H16         15.6050    -6.6610    -0.2610 hc         1 L1        0.093950
     40 H17         13.9930    -5.3550    -2.5560 hc         1 L1        0.093950
     41 H18         15.6240    -6.1730    -2.7270 hc         1 L1        0.093950
     42 H19         15.3130    -2.3240     3.0230 hn         1 L1        0.331200
@<TRIPOS>BOND
     1     1     2 1   
     2     1    24 1   
     3     1    25 1   
     4     1    26 1   
     5     2     3 2   
     6     2    22 1   
     7     3     4 1   
     8     3     5 1   
     9     4    27 1   
    10     4    42 1   
    11     5     6 1   
    12     5    28 1   
    13     6     7 1   
    14     6    19 1   
    15     6    22 1   
    16     7     8 ar  
    17     7    18 ar  
    18     8     9 ar  
    19     8    29 1   
    20     9    10 ar  
    21     9    30 1   
    22    10    11 ar  
    23    10    31 1   
    24    11    12 1   
    25    11    18 ar  
    26    12    13 ar  
    27    12    17 ar  
    28    13    14 ar  
    29    13    32 1   
    30    14    15 ar  
    31    14    33 1   
    32    15    16 ar  
    33    15    34 1   
    34    16    17 ar  
    35    17    35 1   
    36    18    36 1   
    37    19    20 1   
    38    19    21 1   
    39    19    37 1   
    40    20    21 1   
    41    20    38 1   
    42    20    39 1   
    43    21    40 1   
    44    21    41 1   
    45    22    23 2   
@<TRIPOS>SUBSTRUCTURE
     1 L1          1 TEMP              0 ****  ****    0 ROOT
