@<TRIPOS>MOLECULE
L1
42 45 1 0 1
SMALL
USER_CHARGES
@<TRIPOS>CRYSIN
   74.7908    74.7908    74.7908   109.4712   109.4712   109.4712  1  1
@<TRIPOS>ATOM
       1 C1          17.9984     0.9434   -30.6794 c3            1 L1         0.058300
       2 N1          18.8463     0.6710   -29.4288 n             1 L1        -0.392400
       3 C2          18.3007     0.2301   -28.2220 cz            1 L1         0.443600
       4 N2          17.0162    -0.1790   -28.0798 nv            1 L1        -0.460200
       5 N3          19.1973     0.1467   -27.2861 nu            1 L1        -0.334200
       6 C3          20.6153     0.3591   -27.8220 c3            1 L1         0.049700
       7 C4          21.1569     1.5643   -27.0358 ca            1 L1        -0.140300
       8 C5          22.3629     1.4567   -26.3101 ca            1 L1        -0.103000
       9 C6          22.9933     2.6426   -25.8729 ca            1 L1        -0.117000
      10 C7          22.3429     3.8534   -26.2236 ca            1 L1        -0.083000
      11 C8          21.0894     3.9580   -26.8307 cp            1 L1        -0.016000
      12 C9          20.3390     5.2879   -27.0354 cp            1 L1        -0.056000
      13 C10         20.9997     6.4074   -27.5749 ca            1 L1        -0.112000
      14 C11         20.2761     7.6155   -27.7530 ca            1 L1        -0.114000
      15 C12         18.9713     7.7711   -27.3572 ca            1 L1        -0.104000
      16 C13         18.2816     6.6620   -26.8211 ca            1 L1         0.017400
      17 Cl1         16.6203     6.8386   -26.5060 cl            1 L1        -0.074400
      18 C14         18.9119     5.4213   -26.7844 ca            1 L1        -0.118000
      19 C15         20.5168     2.7501   -27.1169 ca            1 L1        -0.101000
      20 C19         20.2490     0.7589   -29.2303 c             1 L1         0.717500
      21 O1          21.0232     0.9862   -30.1378 o             1 L1        -0.479500
      22 H1          18.0893     0.1805   -31.4625 h1            1 L1         0.083700
      23 H2          16.9563     1.1701   -30.4225 h1            1 L1         0.083700
      24 H3          18.3537     1.8454   -31.1929 h1            1 L1         0.083700
      25 H4          16.7141    -0.5377   -27.1830 hn            1 L1         0.331700
      26 H5          19.0180    -0.4333   -26.4764 hn            1 L1         0.327700
      27 H6          22.9055     0.5281   -26.1597 ha            1 L1         0.156000
      28 H7          23.8887     2.5764   -25.2619 ha            1 L1         0.158000
      29 H8          22.8156     4.7516   -25.8376 ha            1 L1         0.160000
      30 H9          21.9522     6.2550   -28.0739 ha            1 L1         0.142000
      31 H11         18.4690     8.7169   -27.5373 ha            1 L1         0.161000
      32 H12         18.4136     4.5544   -26.3607 ha            1 L1         0.140000
      33 H13         19.5011     2.6164   -27.4771 ha            1 L1         0.137000
      34 H16         16.2755     0.0671   -28.7240 hn            1 L1         0.331700
      35 C16         21.4436    -0.8739   -27.8279 cc            1 L1         0.209700
      36 N4          22.5808    -1.1210   -28.4900 nd            1 L1        -0.648000
      37 C17         23.0525    -2.4311   -28.2599 cd            1 L1         0.344200
      38 C18         22.1827    -3.2676   -27.5441 cc            1 L1        -0.269400
      39 S1          20.8835    -2.2824   -26.9723 ss            1 L1         0.163700
      40 H10         20.7293     8.4350   -28.3030 ha            1 L1         0.151000
      41 H14         24.0029    -2.6561   -28.7255 h4            1 L1         0.066100
      42 H15         22.2405    -4.3044   -27.2401 h4            1 L1         0.208000
@<TRIPOS>BOND
       1       20       21 1
       2       38       39 1
       3       37       38 1
       4       36       37 1
       5       35       36 1
       6       35       39 1
       7       16       17 1
       8       16       18 1
       9       15       16 1
      10       14       15 1
      11       13       14 1
      12       12       13 1
      13       12       18 1
      14       11       12 1
      15       11       19 1
      16       10       11 1
      17        9       10 1
      18        8        9 1
      19        7        8 1
      20        7       19 1
      21        6        7 1
      22        6       35 1
      23        6       20 1
      24        5        6 1
      25        3        4 1
      26        3        5 1
      27        2        3 1
      28        2       20 1
      29        1        2 1
      30       38       42 1
      31       37       41 1
      32       19       33 1
      33       18       32 1
      34       15       31 1
      35       14       40 1
      36       13       30 1
      37       10       29 1
      38        9       28 1
      39        8       27 1
      40        5       26 1
      41        4       25 1
      42        4       34 1
      43        1       22 1
      44        1       23 1
      45        1       24 1
@<TRIPOS>SUBSTRUCTURE
       1 L1              1 RESIDUE    0 **** ROOT      0
