@<TRIPOS>MOLECULE
R1
42 45 1 0 1
SMALL
USER_CHARGES
@<TRIPOS>CRYSIN
   74.7022    74.7022    74.7022   109.4712   109.4712   109.4712  1  1
@<TRIPOS>ATOM
       1 C1          17.9984     0.9434   -30.6794 c3            1 R1         0.057300
       2 N1          18.8463     0.6710   -29.4288 n             1 R1        -0.407400
       3 C2          18.3007     0.2301   -28.2220 cz            1 R1         0.444600
       4 N2          17.0162    -0.1790   -28.0798 nv            1 R1        -0.475200
       5 N3          19.1973     0.1467   -27.2861 nu            1 R1        -0.383200
       6 C3          20.6153     0.3591   -27.8220 c3            1 R1         0.110000
       7 C4          21.1569     1.5643   -27.0358 ca            1 R1        -0.141300
       8 C5          22.3629     1.4567   -26.3101 ca            1 R1        -0.082000
       9 C6          22.9933     2.6426   -25.8729 ca            1 R1        -0.117000
      10 C7          22.3429     3.8534   -26.2236 ca            1 R1        -0.079000
      11 C8          21.0894     3.9580   -26.8307 cp            1 R1        -0.016000
      12 C9          20.3390     5.2879   -27.0354 cp            1 R1        -0.169300
      13 C10         20.9997     6.4074   -27.5749 ca            1 R1         0.418200
      14 N4          20.2761     7.6155   -27.7530 nb            1 R1        -0.638000
      15 C11         18.9713     7.7711   -27.3572 ca            1 R1         0.425200
      16 C12         18.2816     6.6620   -26.8211 ca            1 R1        -0.106900
      17 Cl1         16.6203     6.8386   -26.5060 cl            1 R1        -0.057400
      18 C13         18.9119     5.4213   -26.7844 ca            1 R1        -0.085000
      19 C14         20.5168     2.7501   -27.1169 ca            1 R1        -0.109000
      20 C18         20.2490     0.7589   -29.2303 c             1 R1         0.700500
      21 O1          21.0232     0.9862   -30.1378 o             1 R1        -0.466500
      22 H1          18.0893     0.1805   -31.4625 h1            1 R1         0.083700
      23 H2          16.9563     1.1701   -30.4225 h1            1 R1         0.083700
      24 H3          18.3537     1.8454   -31.1929 h1            1 R1         0.083700
      25 H18         16.7141    -0.5377   -27.1830 hn            1 R1         0.331700
      26 H5          19.0180    -0.4333   -26.4764 hn            1 R1         0.344700
      27 H6          22.9055     0.5281   -26.1597 ha            1 R1         0.153000
      28 H7          23.8887     2.5764   -25.2619 ha            1 R1         0.160000
      29 H8          22.8156     4.7516   -25.8376 ha            1 R1         0.161000
      30 H9          21.9522     6.2550   -28.0739 h4            1 R1         0.036100
      31 H10         18.4690     8.7169   -27.5373 h4            1 R1         0.052100
      32 H11         18.4136     4.5544   -26.3607 ha            1 R1         0.140000
      33 H12         19.5011     2.6164   -27.4771 ha            1 R1         0.124000
      34 H4          16.2755     0.0671   -28.7240 hn            1 R1         0.331700
      35 C15         21.0711    -1.0234   -27.3758 cx            1 R1        -0.180700
      36 C16         20.6873    -2.2872   -28.0928 cx            1 R1        -0.107900
      37 C17         22.0754    -1.7046   -28.2386 cx            1 R1        -0.107900
      38 H13         21.2069    -1.1627   -26.3063 hc            1 R1         0.111700
      39 H14         20.6335    -3.1903   -27.4905 hc            1 R1         0.093950
      40 H15         20.0930    -2.2760   -29.0030 hc            1 R1         0.093950
      41 H16         22.2963    -1.2638   -29.2074 hc            1 R1         0.093950
      42 H17         22.8679    -2.2009   -27.6845 hc            1 R1         0.093950
@<TRIPOS>BOND
       1       20       21 1
       2       36       37 1
       3       35       36 1
       4       35       37 1
       5       16       17 1
       6       16       18 1
       7       15       16 1
       8       14       15 1
       9       13       14 1
      10       12       13 1
      11       12       18 1
      12       11       12 1
      13       11       19 1
      14       10       11 1
      15        9       10 1
      16        8        9 1
      17        7        8 1
      18        7       19 1
      19        6        7 1
      20        6       35 1
      21        6       20 1
      22        5        6 1
      23        3        4 1
      24        3        5 1
      25        2        3 1
      26        2       20 1
      27        1        2 1
      28       37       41 1
      29       37       42 1
      30       36       39 1
      31       36       40 1
      32       35       38 1
      33       19       33 1
      34       18       32 1
      35       15       31 1
      36       13       30 1
      37       10       29 1
      38        9       28 1
      39        8       27 1
      40        5       26 1
      41        4       34 1
      42        4       25 1
      43        1       22 1
      44        1       23 1
      45        1       24 1
@<TRIPOS>SUBSTRUCTURE
       1 R1              1 RESIDUE    0 **** ROOT      0
