@<TRIPOS>MOLECULE
R1
42 45 1 0 1
SMALL
USER_CHARGES
@<TRIPOS>CRYSIN
   74.5649    74.5649    74.5649   109.4712   109.4712   109.4712  1  1
@<TRIPOS>ATOM
       1 C1          18.0885    -0.8810   -30.5658 c3            1 R1         0.058300
       2 N1          18.8932    -1.3062   -29.4365 n             1 R1        -0.407400
       3 C2          18.3626    -1.6267   -28.1921 cz            1 R1         0.444600
       4 N2          17.1606    -2.1553   -28.0349 nv            1 R1        -0.476200
       5 N3          19.2973    -1.7461   -27.2722 nu            1 R1        -0.382200
       6 C3          20.6837    -1.4325   -27.8181 c3            1 R1         0.111000
       7 C4          21.3697    -0.2457   -27.3109 ca            1 R1        -0.144300
       8 C5          22.7944    -0.1424   -27.0857 ca            1 R1        -0.084000
       9 C6          23.3851     1.0736   -26.7665 ca            1 R1        -0.117000
      10 C7          22.6310     2.2631   -26.6907 ca            1 R1        -0.080000
      11 C8          21.2033     2.2420   -26.8835 cp            1 R1        -0.011000
      12 C9          20.2379     3.4650   -27.0354 cp            1 R1        -0.184300
      13 C13         20.6996     4.6962   -27.5315 ca            1 R1         0.419200
      14 N4          19.9604     5.7762   -27.6557 nb            1 R1        -0.648000
      15 C12         18.6949     5.6652   -27.1859 ca            1 R1         0.415200
      16 C11         18.1589     4.5035   -26.6074 ca            1 R1        -0.244300
      17 C10         18.9499     3.3788   -26.4518 ca            1 R1        -0.085000
      18 C14         20.5649     0.9833   -27.0792 ca            1 R1        -0.112000
      19 C15         21.3428    -2.7648   -27.3820 cx            1 R1        -0.177700
      20 C16         21.1157    -4.0668   -28.0477 cx            1 R1        -0.107900
      21 C17         22.4295    -3.4065   -28.2555 cx            1 R1        -0.107900
      22 C18         20.2961    -1.1528   -29.3479 c             1 R1         0.701500
      23 O1          21.0474    -0.6864   -30.2285 o             1 R1        -0.466500
      24 H3          17.4172    -0.0769   -30.2398 h1            1 R1         0.083367
      25 H1          18.6612    -0.4493   -31.3959 h1            1 R1         0.083367
      26 H2          17.4797    -1.7094   -30.9487 h1            1 R1         0.083367
      27 H4          16.3446    -1.8560   -28.5532 hn            1 R1         0.331200
      28 H5          19.1737    -2.1866   -26.3695 hn            1 R1         0.344700
      29 H6          23.4333    -1.0181   -27.1511 ha            1 R1         0.152000
      30 H7          24.4639     1.1949   -26.7383 ha            1 R1         0.159000
      31 H8          23.1250     3.2228   -26.5711 ha            1 R1         0.161000
      32 H12         21.6720     4.7554   -28.0182 h4            1 R1         0.032100
      33 H11         18.0185     6.5147   -27.2688 h4            1 R1         0.038100
      34 H9          18.6140     2.4269   -26.0512 ha            1 R1         0.127000
      35 H13         19.5311     1.0314   -27.4087 ha            1 R1         0.122000
      36 H14         21.4204    -2.8000   -26.2983 hc            1 R1         0.111700
      37 H16         21.1680    -4.9020   -27.3540 hc            1 R1         0.093950
      38 H15         20.6242    -4.2878   -28.9917 hc            1 R1         0.093950
      39 H17         22.6405    -2.8795   -29.1825 hc            1 R1         0.093950
      40 H18         23.2670    -3.8895   -27.7586 hc            1 R1         0.093950
      41 H19         16.9375    -2.5653   -27.1370 hn            1 R1         0.331200
      42 H10         17.4049     5.2698   -26.4408 ha            1 R1         0.152000
@<TRIPOS>BOND
       1       22       23 1
       2       20       21 1
       3       19       20 1
       4       19       21 1
       5       14       13 1
       6       15       14 1
       7       16       15 1
       8       17       16 1
       9       12       17 1
      10       12       13 1
      11       11       12 1
      12       11       18 1
      13       10       11 1
      14        9       10 1
      15        8        9 1
      16        7        8 1
      17        7       18 1
      18        6        7 1
      19        6       19 1
      20        6       22 1
      21        5        6 1
      22        3        4 1
      23        3        5 1
      24        2        3 1
      25        2       22 1
      26        1        2 1
      27       21       39 1
      28       21       40 1
      29       20       38 1
      30       20       37 1
      31       19       36 1
      32       18       35 1
      33       13       32 1
      34       15       33 1
      35       16       42 1
      36       17       34 1
      37       10       31 1
      38        9       30 1
      39        8       29 1
      40        5       28 1
      41        4       27 1
      42        4       41 1
      43        1       25 1
      44        1       26 1
      45        1       24 1
@<TRIPOS>SUBSTRUCTURE
       1 R1              1 RESIDUE    0 **** ROOT      0
