@<TRIPOS>MOLECULE
L1
43 46 1 0 1
SMALL
USER_CHARGES
@<TRIPOS>CRYSIN
   74.6397    74.6397    74.6397   109.4712   109.4712   109.4712  1  1
@<TRIPOS>ATOM
       1 C1          17.3321    -2.3247   -29.2433 c3            1 L1         0.057300
       2 N1          18.0745    -2.6742   -28.0248 n             1 L1        -0.407400
       3 C2          17.5314    -2.8497   -26.7578 cz            1 L1         0.443600
       4 N2          16.2359    -2.9698   -26.4878 nv            1 L1        -0.473200
       5 N3          18.4904    -2.8912   -25.8188 nu            1 L1        -0.382200
       6 C3          19.8574    -2.8348   -26.3906 c3            1 L1         0.109000
       7 C4          20.6476    -1.6292   -25.9748 ca            1 L1        -0.137300
       8 C5          22.0456    -1.6876   -25.8143 ca            1 L1        -0.081000
       9 C6          22.8225    -0.5777   -25.4699 ca            1 L1        -0.117000
      10 C7          22.1702     0.6852   -25.4508 ca            1 L1        -0.079000
      11 C8          20.8308     0.8112   -25.7704 cp            1 L1        -0.019000
      12 C9          20.2405     2.1611   -26.0397 cp            1 L1        -0.179300
      13 C10         21.0512     3.2457   -26.5229 ca            1 L1         0.438200
      14 N4          20.5703     4.4394   -26.8215 nb            1 L1        -0.646000
      15 C11         19.2392     4.6921   -26.6433 ca            1 L1         0.454200
      16 C12         18.3427     3.7142   -26.2046 ca            1 L1        -0.128300
      17 C14         18.8464     2.3831   -25.8664 ca            1 L1        -0.053000
      18 C15         20.0971    -0.3234   -26.0298 ca            1 L1        -0.107000
      19 C16         20.3758    -4.2194   -25.9702 cx            1 L1        -0.183700
      20 C17         19.7307    -5.5301   -26.4852 cx            1 L1        -0.107400
      21 C18         21.1727    -5.2121   -26.8336 cx            1 L1        -0.107400
      22 C19         19.4752    -2.6492   -27.9398 c             1 L1         0.700500
      23 O1          20.2279    -2.5989   -28.8231 o             1 L1        -0.466500
      24 H1          17.8369    -2.8191   -30.0824 h1            1 L1         0.083700
      25 H2          16.3262    -2.7514   -29.1461 h1            1 L1         0.083700
      26 H3          17.1917    -1.2499   -29.4125 h1            1 L1         0.083700
      27 H4          15.5118    -2.8785   -27.1889 hn            1 L1         0.332700
      28 H5          18.2403    -3.2183   -24.8943 hn            1 L1         0.343700
      29 H6          22.6206    -2.6070   -25.8737 ha            1 L1         0.153000
      30 H7          23.8998    -0.6869   -25.3865 ha            1 L1         0.161000
      31 H8          22.7966     1.5628   -25.3207 ha            1 L1         0.160000
      32 H9          22.1282     3.1065   -26.6040 h4            1 L1         0.039100
      33 H10         18.8858     5.6923   -26.8897 h4            1 L1         0.052100
      34 H11         18.2216     1.6015   -25.4442 ha            1 L1         0.139000
      35 H12         19.0491    -0.1877   -26.2801 ha            1 L1         0.124000
      36 H13         20.5615    -4.1514   -24.9014 hc            1 L1         0.111700
      37 H14         19.6074    -6.3346   -25.7647 hc            1 L1         0.094950
      38 H15         18.9444    -5.4790   -27.2340 hc            1 L1         0.094950
      39 H16         21.4072    -4.8935   -27.8461 hc            1 L1         0.094950
      40 H17         22.0053    -5.7533   -26.3916 hc            1 L1         0.094950
      41 H18         15.8392    -3.0775   -25.5631 hn            1 L1         0.332700
      42 C13         16.9614     4.0173   -26.0628 cg            1 L1         0.221800
      43 N5          15.8831     4.3259   -25.9134 n1            1 L1        -0.329800
@<TRIPOS>BOND
       1       22       23 1
       2       20       21 1
       3       19       20 1
       4       19       21 1
       5       42       43 1
       6       16       42 1
       7       16       17 1
       8       15       16 1
       9       14       15 1
      10       13       14 1
      11       12       13 1
      12       12       17 1
      13       11       12 1
      14       11       18 1
      15       10       11 1
      16        9       10 1
      17        8        9 1
      18        7        8 1
      19        7       18 1
      20        6        7 1
      21        6       19 1
      22        6       22 1
      23        5        6 1
      24        3        4 1
      25        3        5 1
      26        2        3 1
      27        2       22 1
      28        1        2 1
      29       21       39 1
      30       21       40 1
      31       20       37 1
      32       20       38 1
      33       19       36 1
      34       18       35 1
      35       17       34 1
      36       15       33 1
      37       13       32 1
      38       10       31 1
      39        9       30 1
      40        8       29 1
      41        5       28 1
      42        4       27 1
      43        4       41 1
      44        1       24 1
      45        1       25 1
      46        1       26 1
@<TRIPOS>SUBSTRUCTURE
       1 L1              1 RESIDUE    0 **** ROOT      0
