@<TRIPOS>MOLECULE
R1
46 49 1 0 1
SMALL
USER_CHARGES
@<TRIPOS>CRYSIN
   74.7114    74.7114    74.7114   109.4712   109.4712   109.4712  1  1
@<TRIPOS>ATOM
       1 C16         17.3321    -2.3247   -29.2433 c3            1 R1         0.057300
       2 N4          18.0745    -2.6742   -28.0248 n             1 R1        -0.410300
       3 C15         17.5314    -2.8497   -26.7578 cz            1 R1         0.465400
       4 N3          16.2359    -2.9698   -26.4878 nv            1 R1        -0.472200
       5 N2          18.4904    -2.8912   -25.8188 nu            1 R1        -0.390100
       6 C11         19.8574    -2.8348   -26.3906 c3            1 R1         0.107000
       7 C10         20.6476    -1.6292   -25.9748 ca            1 R1        -0.142300
       8 C9          22.0456    -1.6876   -25.8143 ca            1 R1        -0.125000
       9 C8          22.8225    -0.5777   -25.4699 ca            1 R1        -0.114000
      10 C7          22.1702     0.6852   -25.4508 ca            1 R1        -0.087000
      11 C6          20.8308     0.8112   -25.7704 cp            1 R1        -0.003000
      12 C5          20.2405     2.1611   -26.0397 cp            1 R1        -0.152300
      13 C4          21.0512     3.2457   -26.5229 ca            1 R1         0.379200
      14 N1          20.5703     4.4394   -26.8215 nb            1 R1        -0.621000
      15 C3          19.2392     4.6921   -26.6433 ca            1 R1         0.345200
      16 C2          18.3427     3.7142   -26.2046 ca            1 R1         0.017800
      17 C19         18.8464     2.3831   -25.8664 ca            1 R1        -0.113000
      18 C18         20.0971    -0.3234   -26.0298 ca            1 R1        -0.107000
      19 C12         20.3758    -4.2194   -25.9702 cx            1 R1        -0.180700
      20 C14         19.7307    -5.5301   -26.4852 cx            1 R1        -0.094900
      21 C13         21.1727    -5.2121   -26.8336 cx            1 R1        -0.094900
      22 C17         19.4752    -2.6492   -27.9398 c             1 R1         0.704500
      23 O2          20.2279    -2.5989   -28.8231 o             1 R1        -0.473500
      24 H17         17.8369    -2.8191   -30.0824 h1            1 R1         0.084033
      25 H18         16.3262    -2.7514   -29.1461 h1            1 R1         0.084033
      26 H16         17.1917    -1.2499   -29.4125 h1            1 R1         0.084033
      27 H15         15.5118    -2.8785   -27.1889 hn            1 R1         0.331700
      28 H14         18.2403    -3.2183   -24.8943 hn            1 R1         0.337700
      29 H8          22.6206    -2.6070   -25.8737 ha            1 R1         0.125000
      30 H7          23.8998    -0.6869   -25.3865 ha            1 R1         0.155000
      31 H6          22.7966     1.5628   -25.3207 ha            1 R1         0.162000
      32 H5          22.1282     3.1065   -26.6040 h4            1 R1         0.030100
      33 H4          18.8858     5.6923   -26.8897 h4            1 R1         0.040100
      34 H20         18.2216     1.6015   -25.4442 ha            1 R1         0.150000
      35 H19         19.0491    -0.1877   -26.2801 ha            1 R1         0.162000
      36 H9          20.5615    -4.1514   -24.9014 hc            1 R1         0.099700
      37 H13         19.6074    -6.3346   -25.7647 hc            1 R1         0.093700
      38 H12         18.9444    -5.4790   -27.2340 hc            1 R1         0.093700
      39 H11         21.4072    -4.8935   -27.8461 hc            1 R1         0.093700
      40 H10         22.0053    -5.7533   -26.3916 hc            1 R1         0.093700
      41 H21         15.8392    -3.0775   -25.5631 hn            1 R1         0.331700
      42 C1          16.1547     4.5264   -26.6141 c3            1 R1         0.108700
      43 O1          17.0724     3.6296   -25.8897 os            1 R1        -0.319900
      44 H1          15.1667     4.0929   -26.4158 h1            1 R1         0.054700
      45 H2          16.2299     5.5877   -26.3472 h1            1 R1         0.054700
      46 H3          16.4279     4.3880   -27.6676 h1            1 R1         0.054700
@<TRIPOS>BOND
       1       22       23 1
       2        2        1 1
       3        2       22 1
       4        3        4 1
       5        3        2 1
       6        5        3 1
       7       21       20 1
       8       19       21 1
       9       19       20 1
      10        6       19 1
      11        6        5 1
      12        6       22 1
      13        7        6 1
      14        7       18 1
      15        8        7 1
      16        9        8 1
      17       10        9 1
      18       11       10 1
      19       11       18 1
      20       12       11 1
      21       12       17 1
      22       13       12 1
      23       14       13 1
      24       15       14 1
      25       16       15 1
      26       16       17 1
      27       43       16 1
      28       42       43 1
      29       17       34 1
      30       18       35 1
      31        1       26 1
      32        1       24 1
      33        1       25 1
      34        4       27 1
      35        4       41 1
      36        5       28 1
      37       20       38 1
      38       20       37 1
      39       21       40 1
      40       21       39 1
      41       19       36 1
      42        8       29 1
      43        9       30 1
      44       10       31 1
      45       13       32 1
      46       15       33 1
      47       42       44 1
      48       42       45 1
      49       42       46 1
@<TRIPOS>SUBSTRUCTURE
       1 R1              1 RESIDUE    0 **** ROOT      0
