@<TRIPOS>MOLECULE
L1
   44    47     1     0     0
SMALL
No Charge or Current Charge


@<TRIPOS>ATOM
      1 C1          11.7850    -2.3450     1.0630 C.3        1 L1        0.057300
      2 N1          13.1440    -2.6060     0.5700 N.am       1 L1       -0.408400
      3 C2          14.2740    -2.5300     1.2880 C.cat      1 L1        0.444600
      4 N2          14.3690    -2.2900     2.6000 N.3        1 L1       -0.474200
      5 N3          15.3480    -2.7490     0.5310 N.3        1 L1       -0.382200
      6 C3          15.0180    -3.0660    -0.8500 C.3        1 L1        0.110000
      7 C4          15.5550    -1.9960    -1.8190 C.ar       1 L1       -0.144300
      8 C5          16.2100    -2.3560    -3.0210 C.ar       1 L1       -0.081000
      9 C6          16.6300    -1.3670    -3.9220 C.ar       1 L1       -0.118000
     10 C7          16.3790    -0.0110    -3.6500 C.ar       1 L1       -0.079000
     11 C8          15.7540     0.3920    -2.4510 C.ar       1 L1       -0.018000
     12 C9          15.4600     1.8220    -2.1920 C.ar       1 L1       -0.063000
     13 C10         15.1110     2.6870    -3.2560 C.ar       1 L1       -0.088000
     14 C11         14.7530     4.0290    -3.0230 C.ar       1 L1       -0.124000
     15 C12         14.7530     4.5400    -1.7150 C.ar       1 L1       -0.072000
     16 C13         15.1250     3.7080    -0.6440 C.ar       1 L1       -0.012000
     17 C14         15.1350     4.2480     0.7040 C.1        1 L1        0.221800
     18 N4          15.1440     4.6820     1.7760 N.1        1 L1       -0.342800
     19 C15         15.4760     2.3610    -0.8840 C.ar       1 L1       -0.090000
     20 C16         15.3690    -0.6170    -1.5380 C.ar       1 L1       -0.112000
     21 C17         15.5920    -4.4670    -1.1260 C.3        1 L1       -0.176700
     22 C18         14.9500    -5.7530    -0.6410 C.3        1 L1       -0.107400
     23 C19         15.0110    -5.4510    -2.1180 C.3        1 L1       -0.107400
     24 C20         13.4790    -2.9640    -0.7730 C.2        1 L1        0.701500
     25 O1          12.6530    -3.1190    -1.6780 O.2        1 L1       -0.468500
     26 H1          11.6560    -2.7470     2.0690 H          1 L1        0.083367
     27 H2          11.6120    -1.2700     1.0970 H          1 L1        0.083367
     28 H3          11.0290    -2.7930     0.4170 H          1 L1        0.083367
     29 H4          13.5880    -2.0400     3.2030 H          1 L1        0.331700
     30 H5          16.3110    -2.7410     0.8720 H          1 L1        0.344700
     31 H6          16.3940    -3.3860    -3.2910 H          1 L1        0.152000
     32 H7          17.1250    -1.6500    -4.8420 H          1 L1        0.159000
     33 H8          16.6710     0.7240    -4.3840 H          1 L1        0.159000
     34 H9          15.0740     2.3090    -4.2680 H          1 L1        0.147000
     35 H10         14.4550     4.6660    -3.8430 H          1 L1        0.156000
     36 H11         14.4630     5.5670    -1.5360 H          1 L1        0.160000
     37 H12         15.7580     1.7340    -0.0520 H          1 L1        0.131000
     38 H13         14.8680    -0.3210    -0.6280 H          1 L1        0.124000
     39 H14         16.6770    -4.4710    -1.0660 H          1 L1        0.110700
     40 H15         15.6120    -6.5320    -0.2670 H          1 L1        0.093950
     41 H16         13.9720    -5.7130    -0.1650 H          1 L1        0.093950
     42 H17         14.0740    -5.2080    -2.6030 H          1 L1        0.093950
     43 H18         15.7100    -6.0220    -2.7270 H          1 L1        0.093950
     44 H19         15.2900    -2.2840     3.0380 H          1 L1        0.331700
@<TRIPOS>BOND
     1     1     2 1   
     2     1    26 1   
     3     1    27 1   
     4     1    28 1   
     5     2     3 2   
     6     2    24 am  
     7     3     4 1   
     8     3     5 1   
     9     4    29 1   
    10     4    44 1   
    11     5     6 1   
    12     5    30 1   
    13     6     7 1   
    14     6    21 1   
    15     6    24 1   
    16     7     8 ar  
    17     7    20 ar  
    18     8     9 ar  
    19     8    31 1   
    20     9    10 ar  
    21     9    32 1   
    22    10    11 ar  
    23    10    33 1   
    24    11    12 1   
    25    11    20 ar  
    26    12    13 ar  
    27    12    19 ar  
    28    13    14 ar  
    29    13    34 1   
    30    14    15 ar  
    31    14    35 1   
    32    15    16 ar  
    33    15    36 1   
    34    16    17 1   
    35    16    19 ar  
    36    17    18 3   
    37    19    37 1   
    38    20    38 1   
    39    21    22 1   
    40    21    23 1   
    41    21    39 1   
    42    22    23 1   
    43    22    40 1   
    44    22    41 1   
    45    23    42 1   
    46    23    43 1   
    47    24    25 2   
@<TRIPOS>SUBSTRUCTURE
     1 L1          1 TEMP              0 ****  ****    0 ROOT
