@<TRIPOS>MOLECULE
R1
42 45 1 0 1
SMALL
USER_CHARGES
@<TRIPOS>CRYSIN
   74.5649    74.5649    74.5649   109.4712   109.4712   109.4712  1  1
@<TRIPOS>ATOM
       1 C1          17.8798    -2.0707   -29.3738 c3            1 R1         0.058300
       2 N1          18.6717    -2.1612   -28.1922 n             1 R1        -0.407400
       3 C2          18.1476    -2.3064   -26.8829 cz            1 R1         0.444600
       4 N2          16.8583    -2.2181   -26.5685 nv            1 R1        -0.476200
       5 N3          19.1984    -2.2693   -26.0239 nu            1 R1        -0.382200
       6 C3          20.4881    -1.9722   -26.6071 c3            1 R1         0.111000
       7 C4          21.1821    -0.7052   -26.0109 ca            1 R1        -0.144300
       8 C5          22.2251    -0.8079   -25.0855 ca            1 R1        -0.084000
       9 C6          22.8575     0.3813   -24.6610 ca            1 R1        -0.117000
      10 C7          22.2752     1.6555   -24.8902 ca            1 R1        -0.080000
      11 C8          21.1552     1.7575   -25.7148 cp            1 R1        -0.011000
      12 C9          20.5233     3.0624   -25.9924 cp            1 R1        -0.184300
      13 C10         21.3478     3.9617   -26.7198 ca            1 R1        -0.085000
      14 C11         20.7974     5.0931   -27.2737 ca            1 R1        -0.244300
      15 C12         19.4389     5.3715   -27.1938 ca            1 R1         0.415200
      16 N4          18.5961     4.5951   -26.3216 nb            1 R1        -0.648000
      17 C13         19.1689     3.3778   -25.8127 ca            1 R1         0.419200
      18 C14         20.7277     0.6176   -26.4128 ca            1 R1        -0.112000
      19 C15         21.3478    -3.2532   -26.3933 cx            1 R1        -0.177700
      20 C17         21.2673    -4.1989   -25.2233 cx            1 R1        -0.107900
      21 C16         20.7579    -4.6682   -26.5339 cx            1 R1        -0.107900
      22 C18         19.9929    -1.8359   -28.0496 c             1 R1         0.701500
      23 O1          20.6410    -1.4257   -28.9743 o             1 R1        -0.466500
      24 H2          17.1045    -2.8396   -29.4791 h1            1 R1         0.083367
      25 H3          17.3298    -1.1221   -29.4081 h1            1 R1         0.083367
      26 H1          18.5459    -2.0440   -30.2450 h1            1 R1         0.083367
      27 H4          16.1326    -2.1201   -27.2669 hn            1 R1         0.331200
      28 H5          19.0476    -2.3163   -25.0243 hn            1 R1         0.344700
      29 H6          22.6682    -1.7780   -24.8808 ha            1 R1         0.152000
      30 H7          23.7218     0.3642   -24.0037 ha            1 R1         0.159000
      31 H8          22.7506     2.4934   -24.3889 ha            1 R1         0.161000
      32 H9          22.3815     3.6534   -26.8460 ha            1 R1         0.127000
      33 H10         21.2958     5.7333   -27.9956 ha            1 R1         0.152000
      34 H11         18.9403     6.1238   -27.7979 h4            1 R1         0.038100
      35 H12         18.5678     2.5890   -25.3699 h4            1 R1         0.032100
      36 H13         19.9622     0.7142   -27.1770 ha            1 R1         0.122000
      37 H14         22.3902    -3.1515   -26.6843 hc            1 R1         0.111700
      38 H18         22.2273    -4.5872   -24.8930 hc            1 R1         0.093950
      39 H17         20.5729    -3.9308   -24.4311 hc            1 R1         0.093950
      40 H15         19.6904    -4.7713   -26.7111 hc            1 R1         0.093950
      41 H16         21.4230    -5.3712   -27.0289 hc            1 R1         0.093950
      42 H19         16.5471    -2.0332   -25.6235 hn            1 R1         0.331200
@<TRIPOS>BOND
       1       22       23 1
       2       21       20 1
       3       19       21 1
       4       19       20 1
       5       16       17 1
       6       15       16 1
       7       14       15 1
       8       13       14 1
       9       12       13 1
      10       12       17 1
      11       11       12 1
      12       11       18 1
      13       10       11 1
      14        9       10 1
      15        8        9 1
      16        7        8 1
      17        7       18 1
      18        6        7 1
      19        6       19 1
      20        6       22 1
      21        5        6 1
      22        3        4 1
      23        3        5 1
      24        2        3 1
      25        2       22 1
      26        1        2 1
      27       20       39 1
      28       20       38 1
      29       21       40 1
      30       21       41 1
      31       19       37 1
      32       18       36 1
      33       17       35 1
      34       15       34 1
      35       14       33 1
      36       13       32 1
      37       10       31 1
      38        9       30 1
      39        8       29 1
      40        5       28 1
      41        4       27 1
      42        4       42 1
      43        1       26 1
      44        1       24 1
      45        1       25 1
@<TRIPOS>SUBSTRUCTURE
       1 R1              1 RESIDUE    0 **** ROOT      0
