@<TRIPOS>MOLECULE
L1
   46    49     1     0     0
SMALL
No Charge or Current Charge


@<TRIPOS>ATOM
      1 C1          11.6950    -2.1440     1.3060 C.3        1 L1        0.056300
      2 N1          13.0020    -2.3990     0.7000 N.am       1 L1       -0.401400
      3 C2          14.1920    -2.4860     1.3200 C.cat      1 L1        0.434600
      4 N2          14.4010    -2.3560     2.6350 N.3        1 L1       -0.467200
      5 N3          15.1810    -2.7370     0.4600 N.3        1 L1       -0.366200
      6 C3          14.6760    -2.9530    -0.8940 C.3        1 L1        0.122300
      7 C4          14.8450    -4.4630    -1.1960 C.ar       1 L1       -0.156300
      8 C5          16.0870    -4.9310    -1.6680 C.ar       1 L1       -0.111000
      9 C6          16.3080    -6.2910    -1.9320 C.ar       1 L1       -0.117000
     10 C7          15.3010    -7.2310    -1.6610 C.ar       1 L1       -0.089000
     11 C8          14.0790    -6.8050    -1.1180 C.ar       1 L1       -0.117000
     12 C9          13.8520    -5.4360    -0.8930 C.ar       1 L1       -0.111000
     13 C10         15.2710    -1.9270    -1.8910 C.ar       1 L1       -0.135300
     14 C11         15.7220    -2.2890    -3.1820 C.ar       1 L1       -0.079000
     15 C12         16.2630    -1.3220    -4.0410 C.ar       1 L1       -0.118000
     16 C13         16.2450     0.0370    -3.6850 C.ar       1 L1       -0.080000
     17 C14         15.7220     0.4600    -2.4440 C.ar       1 L1       -0.026000
     18 C15         15.5140     1.8980    -2.1460 C.ar       1 L1       -0.177300
     19 C16         15.2250     2.8240    -3.1770 C.ar       1 L1        0.436200
     20 N4          14.9110     4.1190    -2.9750 N.ar       1 L1       -0.647000
     21 C17         14.8690     4.5740    -1.7080 C.ar       1 L1        0.452200
     22 C18         15.1720     3.7660    -0.6030 C.ar       1 L1       -0.128300
     23 C19         15.1260     4.3200     0.7380 C.1        1 L1        0.221800
     24 N5          15.0920     4.7630     1.8040 N.1        1 L1       -0.330800
     25 C20         15.5070     2.4170    -0.8300 C.ar       1 L1       -0.053000
     26 C21         15.3080    -0.5490    -1.5400 C.ar       1 L1       -0.101000
     27 C22         13.1930    -2.6020    -0.6950 C.2        1 L1        0.703500
     28 O1          12.2930    -2.5480    -1.5430 O.2        1 L1       -0.465500
     29 H1          11.3750    -1.1310     1.0630 H          1 L1        0.084367
     30 H2          10.9510    -2.8410     0.9210 H          1 L1        0.084367
     31 H3          11.7360    -2.2650     2.3860 H          1 L1        0.084367
     32 H4          15.3520    -2.4190     2.9990 H          1 L1        0.332200
     33 H5          16.1640    -2.8380     0.7120 H          1 L1        0.333700
     34 H6          16.8740    -4.2220    -1.8420 H          1 L1        0.143500
     35 H7          17.2610    -6.6010    -2.3270 H          1 L1        0.157500
     36 H8          15.4670    -8.2800    -1.8380 H          1 L1        0.159000
     37 H9          13.3210    -7.5360    -0.8630 H          1 L1        0.157500
     38 H10         12.9020    -5.1790    -0.4580 H          1 L1        0.143500
     39 H11         15.6770    -3.3050    -3.5440 H          1 L1        0.158000
     40 H12         16.6580    -1.6220    -5.0020 H          1 L1        0.160000
     41 H13         16.6030     0.7570    -4.4050 H          1 L1        0.158000
     42 H14         15.1800     2.5040    -4.2050 H          1 L1        0.038100
     43 H15         14.5910     5.6110    -1.5790 H          1 L1        0.051100
     44 H16         15.7420     1.7790     0.0070 H          1 L1        0.143000
     45 H17         14.9210    -0.2490    -0.5790 H          1 L1        0.129000
     46 H18         13.6860    -2.0580     3.2950 H          1 L1        0.332200
@<TRIPOS>BOND
     1     1     2 1   
     2     1    29 1   
     3     1    30 1   
     4     1    31 1   
     5     2     3 2   
     6     2    27 am  
     7     3     4 1   
     8     3     5 1   
     9     4    32 1   
    10     4    46 1   
    11     5     6 1   
    12     5    33 1   
    13     6     7 1   
    14     6    13 1   
    15     6    27 1   
    16     7     8 ar  
    17     7    12 ar  
    18     8     9 ar  
    19     8    34 1   
    20     9    10 ar  
    21     9    35 1   
    22    10    11 ar  
    23    10    36 1   
    24    11    12 ar  
    25    11    37 1   
    26    12    38 1   
    27    13    14 ar  
    28    13    26 ar  
    29    14    15 ar  
    30    14    39 1   
    31    15    16 ar  
    32    15    40 1   
    33    16    17 ar  
    34    16    41 1   
    35    17    18 1   
    36    17    26 ar  
    37    18    19 ar  
    38    18    25 ar  
    39    19    20 ar  
    40    19    42 1   
    41    20    21 ar  
    42    21    22 ar  
    43    21    43 1   
    44    22    23 1   
    45    22    25 ar  
    46    23    24 3   
    47    25    44 1   
    48    26    45 1   
    49    27    28 2   
@<TRIPOS>SUBSTRUCTURE
     1 L1          1 TEMP              0 ****  ****    0 ROOT
