@<TRIPOS>MOLECULE
L1
45 48 1 0 1
SMALL
USER_CHARGES
@<TRIPOS>CRYSIN
   74.6251    74.6251    74.6251   109.4712   109.4712   109.4712  1  1
@<TRIPOS>ATOM
       1 C1          17.4561    -2.1007   -29.4856 c3            1 L1         0.056300
       2 N1          18.2581    -1.7330   -28.2724 n             1 L1        -0.400400
       3 C2          17.8129    -2.0284   -26.9945 cz            1 L1         0.441600
       4 N2          16.6093    -2.5347   -26.7426 nv            1 L1        -0.465200
       5 N3          18.7968    -1.8476   -26.1192 nu            1 L1        -0.369200
       6 C3          20.0806    -1.5051   -26.8020 c3            1 L1         0.129300
       7 C4          21.0485    -2.7570   -26.6567 ca            1 L1        -0.258600
       8 C5          22.1397    -2.8752   -27.5172 ca            1 L1        -0.060000
       9 C6          22.8615    -4.0697   -27.3910 ca            1 L1        -0.230300
      10 C7          22.3957    -5.0926   -26.5058 ca            1 L1         0.430200
      11 N4          21.4648    -4.9181   -25.6467 nb            1 L1        -0.649000
      12 C8          20.7573    -3.7931   -25.7002 ca            1 L1         0.420200
      13 C9          20.7445    -0.2335   -26.1852 ca            1 L1        -0.155300
      14 C10         21.7313    -0.2039   -25.2454 ca            1 L1        -0.105000
      15 C11         22.3096     0.8970   -24.7570 ca            1 L1        -0.116000
      16 C12         21.8389     2.1389   -25.1557 ca            1 L1        -0.083000
      17 C13         20.7254     2.2833   -26.0613 cp            1 L1        -0.012000
      18 C14         20.0319     3.5697   -26.3222 cp            1 L1        -0.056000
      19 C15         20.7984     4.7910   -26.2519 ca            1 L1        -0.108000
      20 C16         20.1290     5.9690   -26.6017 ca            1 L1        -0.112000
      21 C17         18.7688     6.0723   -26.9090 ca            1 L1        -0.102000
      22 C18         18.0488     4.9191   -26.6889 ca            1 L1         0.017400
      23 C19         18.6241     3.6549   -26.4040 ca            1 L1        -0.118000
      24 C20         20.1818     1.0321   -26.6187 ca            1 L1        -0.103000
      25 C21         19.5759    -1.3749   -28.3078 c             1 L1         0.705500
      26 O1          20.1808    -0.9345   -29.2563 o             1 L1        -0.473500
      27 H1          16.8303    -2.9880   -29.3293 h1            1 L1         0.085033
      28 H2          16.6690    -1.4027   -29.7965 h1            1 L1         0.085033
      29 H3          18.0920    -2.3330   -30.3488 h1            1 L1         0.085033
      30 H4          16.3855    -2.7121   -25.7717 hn            1 L1         0.332700
      31 H5          18.7759    -2.1466   -25.1527 hn            1 L1         0.335700
      32 H6          22.4323    -2.1583   -28.2787 ha            1 L1         0.167000
      33 H7          23.6448    -4.3779   -28.0773 ha            1 L1         0.169000
      34 H8          22.8042    -6.0992   -26.4297 h4            1 L1         0.048100
      35 H9          19.9166    -3.7595   -25.0088 h4            1 L1         0.018100
      36 H10         22.2053    -1.1327   -24.9424 ha            1 L1         0.145000
      37 H11         23.1760     0.8863   -24.1023 ha            1 L1         0.158000
      38 H12         22.3362     3.0176   -24.7557 ha            1 L1         0.160000
      39 H13         21.8356     4.8855   -25.9440 ha            1 L1         0.143000
      40 H14         20.7899     6.8158   -26.7614 ha            1 L1         0.152000
      41 H15         18.3012     6.9824   -27.2728 ha            1 L1         0.161000
      42 H16         17.9841     2.8196   -26.1354 ha            1 L1         0.135000
      43 H17         19.3278     1.0412   -27.2895 ha            1 L1         0.143000
      44 H18         15.7578    -2.2603   -27.2155 hn            1 L1         0.332700
      45 Cl1         16.3780     5.0338   -26.6864 cl            1 L1        -0.078400
@<TRIPOS>BOND
       1       25       26 1
       2       22       45 1
       3       22       23 1
       4       21       22 1
       5       20       21 1
       6       19       20 1
       7       18       19 1
       8       18       23 1
       9       17       18 1
      10       17       24 1
      11       16       17 1
      12       15       16 1
      13       14       15 1
      14       13       14 1
      15       13       24 1
      16       11       12 1
      17       10       11 1
      18        9       10 1
      19        8        9 1
      20        7        8 1
      21        7       12 1
      22        6        7 1
      23        6       13 1
      24        6       25 1
      25        5        6 1
      26        3        4 1
      27        3        5 1
      28        2        3 1
      29        2       25 1
      30        1        2 1
      31       24       43 1
      32       23       42 1
      33       21       41 1
      34       20       40 1
      35       19       39 1
      36       16       38 1
      37       15       37 1
      38       14       36 1
      39       12       35 1
      40       10       34 1
      41        9       33 1
      42        8       32 1
      43        5       31 1
      44        4       30 1
      45        4       44 1
      46        1       27 1
      47        1       28 1
      48        1       29 1
@<TRIPOS>SUBSTRUCTURE
       1 L1              1 RESIDUE    0 **** ROOT      0
