@<TRIPOS>MOLECULE
R1
50 53 1 0 1
SMALL
USER_CHARGES
@<TRIPOS>CRYSIN
   74.7256    74.7256    74.7256   109.4712   109.4712   109.4712  1  1
@<TRIPOS>ATOM
       1 C20         17.4561    -2.1007   -29.4856 c3            1 R1         0.058300
       2 N3          18.2581    -1.7330   -28.2724 n             1 R1        -0.412300
       3 C19         17.8129    -2.0284   -26.9945 cz            1 R1         0.463400
       4 N2          16.6093    -2.5347   -26.7426 nv            1 R1        -0.473200
       5 N1          18.7968    -1.8476   -26.1192 nu            1 R1        -0.390100
       6 C12         20.0806    -1.5051   -26.8020 c3            1 R1         0.131300
       7 C13         21.0485    -2.7570   -26.6567 ca            1 R1        -0.149300
       8 C18         22.1397    -2.8752   -27.5172 ca            1 R1        -0.110500
       9 C17         22.8615    -4.0697   -27.3910 ca            1 R1        -0.118500
      10 C16         22.3957    -5.0926   -26.5058 ca            1 R1        -0.091000
      11 C15         21.4648    -4.9181   -25.6467 ca            1 R1        -0.118500
      12 C14         20.7573    -3.7931   -25.7002 ca            1 R1        -0.110500
      13 C11         20.7445    -0.2335   -26.1852 ca            1 R1        -0.142300
      14 C10         21.7313    -0.2039   -25.2454 ca            1 R1        -0.082000
      15 C9          22.3096     0.8970   -24.7570 ca            1 R1        -0.122000
      16 C8          21.8389     2.1389   -25.1557 ca            1 R1        -0.080000
      17 C7          20.7254     2.2833   -26.0613 cp            1 R1        -0.019000
      18 C6          20.0319     3.5697   -26.3222 cp            1 R1        -0.030000
      19 C5          20.7984     4.7910   -26.2519 ca            1 R1        -0.146000
      20 C4          20.1290     5.9690   -26.6017 ca            1 R1        -0.086000
      21 C3          18.7688     6.0723   -26.9090 ca            1 R1        -0.185000
      22 C2          18.0488     4.9191   -26.6889 ca            1 R1         0.128100
      23 C23         18.6241     3.6549   -26.4040 ca            1 R1        -0.155000
      24 C22         20.1818     1.0321   -26.6187 ca            1 R1        -0.105000
      25 C21         19.5759    -1.3749   -28.3078 c             1 R1         0.705500
      26 O2          20.1808    -0.9345   -29.2563 o             1 R1        -0.468500
      27 H19         16.8303    -2.9880   -29.3293 h1            1 R1         0.082367
      28 H17         16.6690    -1.4027   -29.7965 h1            1 R1         0.082367
      29 H18         18.0920    -2.3330   -30.3488 h1            1 R1         0.082367
      30 H22         16.3855    -2.7121   -25.7717 hn            1 R1         0.330200
      31 H15         18.7759    -2.1466   -25.1527 hn            1 R1         0.339700
      32 H14         22.4323    -2.1583   -28.2787 ha            1 R1         0.144000
      33 H13         23.6448    -4.3779   -28.0773 ha            1 R1         0.156000
      34 H12         22.8042    -6.0992   -26.4297 ha            1 R1         0.157000
      35 H10         19.9166    -3.7595   -25.0088 ha            1 R1         0.144000
      36 H9          22.2053    -1.1327   -24.9424 ha            1 R1         0.155000
      37 H8          23.1760     0.8863   -24.1023 ha            1 R1         0.156000
      38 H7          22.3362     3.0176   -24.7557 ha            1 R1         0.158000
      39 H6          21.8356     4.8855   -25.9440 ha            1 R1         0.141000
      40 H5          20.7899     6.8158   -26.7614 ha            1 R1         0.146000
      41 H4          18.3012     6.9824   -27.2728 ha            1 R1         0.149000
      42 H21         17.9841     2.8196   -26.1354 ha            1 R1         0.137000
      43 H20         19.3278     1.0412   -27.2895 ha            1 R1         0.128000
      44 H16         15.7578    -2.2603   -27.2155 hn            1 R1         0.330200
      45 C1          15.2680     5.3630   -26.3709 c3            1 R1         0.111700
      46 O1          16.2698     4.3871   -26.0807 os            1 R1        -0.334900
      47 H1          14.2948     4.9271   -26.1128 h1            1 R1         0.051033
      48 H2          15.2337     6.3160   -25.8289 h1            1 R1         0.051033
      49 H3          15.2047     5.5145   -27.4555 h1            1 R1         0.051033
      50 H11         21.4078    -5.3732   -23.9720 ha            1 R1         0.156000
@<TRIPOS>BOND
       1       25       26 1
       2        2        1 1
       3        2       25 1
       4        3        4 1
       5        3        2 1
       6        5        3 1
       7        9        8 1
       8       10        9 1
       9       11       10 1
      10       12       11 1
      11        7       12 1
      12        7        8 1
      13        6        7 1
      14        6        5 1
      15        6       25 1
      16       13        6 1
      17       13       24 1
      18       14       13 1
      19       15       14 1
      20       16       15 1
      21       17       16 1
      22       17       24 1
      23       18       17 1
      24       18       23 1
      25       19       18 1
      26       20       19 1
      27       21       20 1
      28       22       21 1
      29       22       23 1
      30       46       22 1
      31       45       46 1
      32       23       42 1
      33       24       43 1
      34        1       28 1
      35        1       29 1
      36        1       27 1
      37        4       44 1
      38        4       30 1
      39        5       31 1
      40        8       32 1
      41        9       33 1
      42       10       34 1
      43       11       50 1
      44       12       35 1
      45       14       36 1
      46       15       37 1
      47       16       38 1
      48       19       39 1
      49       20       40 1
      50       21       41 1
      51       45       47 1
      52       45       48 1
      53       45       49 1
@<TRIPOS>SUBSTRUCTURE
       1 R1              1 RESIDUE    0 **** ROOT      0
