@<TRIPOS>MOLECULE
R1
50 53 1 0 1
SMALL
USER_CHARGES
@<TRIPOS>CRYSIN
   74.6583    74.6583    74.6583   109.4712   109.4712   109.4712  1  1
@<TRIPOS>ATOM
       1 C3          19.2396     3.2182   -25.9570 ca            1 R1        -0.181000
       2 C2          19.9952     4.1127   -26.7707 ca            1 R1         0.148100
       3 C23         21.2656     3.8336   -27.0991 ca            1 R1        -0.181000
       4 C22         21.7949     2.6630   -26.7079 ca            1 R1        -0.079500
       5 C5          21.0788     1.6541   -25.9416 cp            1 R1        -0.106000
       6 C6          21.6883     0.2687   -25.6517 cp            1 R1        -0.007000
       7 C7          22.8785     0.1944   -24.9375 ca            1 R1        -0.087000
       8 C8          23.5009    -1.0324   -24.6824 ca            1 R1        -0.120000
       9 C9          22.8374    -2.2106   -25.1340 ca            1 R1        -0.087000
      10 C10         21.5892    -2.1786   -25.7276 ca            1 R1        -0.140300
      11 C11         20.9554    -3.4613   -26.2564 c3            1 R1         0.129300
      12 C12         21.7012    -4.7737   -25.8499 ca            1 R1        -0.151300
      13 C13         22.7023    -5.3187   -26.6926 ca            1 R1        -0.110500
      14 C14         23.4341    -6.4854   -26.2857 ca            1 R1        -0.118000
      15 C15         23.0942    -7.1014   -25.0759 ca            1 R1        -0.091000
      16 C16         22.2205    -6.4770   -24.1807 ca            1 R1        -0.118000
      17 C17         21.4684    -5.3253   -24.5826 ca            1 R1        -0.110500
      18 N1          19.5824    -3.5671   -25.8159 nu            1 R1        -0.386100
      19 C18         18.6960    -3.4031   -26.8028 cz            1 R1         0.461400
      20 N2          17.3658    -3.5522   -26.7418 nv            1 R1        -0.473200
      21 N3          19.2966    -3.2053   -28.0405 n             1 R1        -0.411300
      22 C19         18.6750    -2.5380   -29.2374 c3            1 R1         0.057300
      23 C20         20.6499    -3.3091   -27.7895 c             1 R1         0.705500
      24 O2          21.5257    -3.1564   -28.6208 o             1 R1        -0.468500
      25 C21         21.0425    -0.9446   -26.1026 ca            1 R1        -0.110000
      26 C4          19.8305     2.0348   -25.5527 ca            1 R1        -0.079500
      27 H20         22.7419     2.4044   -27.1793 ha            1 R1         0.132000
      28 H6          23.3221     1.1065   -24.5495 ha            1 R1         0.156000
      29 H7          24.4169    -1.1700   -24.1155 ha            1 R1         0.155000
      30 H8          23.4094    -3.1231   -24.9938 ha            1 R1         0.154000
      31 H9          22.9813    -4.9836   -27.6872 ha            1 R1         0.144000
      32 H10         24.0900    -6.8979   -27.0466 ha            1 R1         0.156500
      33 H11         23.6105    -8.0152   -24.7972 ha            1 R1         0.157000
      34 H12         22.0117    -7.0292   -23.2691 ha            1 R1         0.156500
      35 H13         20.6753    -4.9506   -23.9423 ha            1 R1         0.144000
      36 H14         19.2178    -3.7198   -24.8843 hn            1 R1         0.337700
      37 H15         16.7999    -3.4906   -27.5786 hn            1 R1         0.330200
      38 H16         18.7434    -1.4503   -29.1122 h1            1 R1         0.082700
      39 H17         19.0962    -2.9331   -30.1701 h1            1 R1         0.082700
      40 H18         17.6112    -2.8060   -29.2425 h1            1 R1         0.082700
      41 H19         20.2025    -0.8371   -26.7825 ha            1 R1         0.127000
      42 H5          19.2236     1.3449   -24.9739 ha            1 R1         0.132000
      43 H22         16.9437    -3.3530   -25.8439 hn            1 R1         0.330200
      44 C1          17.9170     5.5741   -24.4140 c3            1 R1         0.109700
      45 O1          19.2872     5.3943   -24.8236 os            1 R1        -0.319900
      46 H1          17.2350     4.8191   -24.8242 h1            1 R1         0.052700
      47 H2          17.8484     5.5921   -23.3193 h1            1 R1         0.052700
      48 H3          17.6254     6.5323   -24.8612 h1            1 R1         0.052700
      49 H4          18.1995     2.9882   -24.0633 ha            1 R1         0.153000
      50 H21         21.6173     4.9511   -25.7173 ha            1 R1         0.153000
@<TRIPOS>BOND
       1        4        3 1
       2       23       24 1
       3       21       22 1
       4       21       23 1
       5       19       20 1
       6       19       21 1
       7       18       19 1
       8       16       17 1
       9       15       16 1
      10       14       15 1
      11       13       14 1
      12       12       13 1
      13       12       17 1
      14       11       12 1
      15       11       18 1
      16       11       23 1
      17       10       11 1
      18       10       25 1
      19        9       10 1
      20        8        9 1
      21        7        8 1
      22        6        7 1
      23        6       25 1
      24        5        6 1
      25        5        4 1
      26       26        5 1
      27        1       26 1
      28        2        1 1
      29        2        3 1
      30       45        2 1
      31       44       45 1
      32        3       50 1
      33        4       27 1
      34       25       41 1
      35       22       38 1
      36       22       39 1
      37       22       40 1
      38       20       37 1
      39       20       43 1
      40       18       36 1
      41       17       35 1
      42       16       34 1
      43       15       33 1
      44       14       32 1
      45       13       31 1
      46        9       30 1
      47        8       29 1
      48        7       28 1
      49       26       42 1
      50        1       49 1
      51       44       46 1
      52       44       47 1
      53       44       48 1
@<TRIPOS>SUBSTRUCTURE
       1 R1              1 RESIDUE    0 **** ROOT      0
