@<TRIPOS>MOLECULE
R1
42 45 1 0 1
SMALL
USER_CHARGES
@<TRIPOS>CRYSIN
   74.6724    74.6724    74.6724   109.4712   109.4712   109.4712  1  1
@<TRIPOS>ATOM
       1 C1          17.9547    -1.2940   -30.8612 c3            1 R1         0.057300
       2 N1          18.5696    -1.2973   -29.5180 n             1 R1        -0.407400
       3 C2          17.9042    -1.5874   -28.2994 cz            1 R1         0.444600
       4 N2          16.7047    -2.1986   -28.2130 nv            1 R1        -0.474200
       5 N3          18.8267    -1.5485   -27.2961 nu            1 R1        -0.383200
       6 C3          20.1946    -1.3915   -27.7578 c3            1 R1         0.110000
       7 C4          20.8220    -0.0575   -27.1412 ca            1 R1        -0.141300
       8 C5          22.1202     0.1344   -26.6915 ca            1 R1        -0.081000
       9 C6          22.6106     1.3585   -26.2728 ca            1 R1        -0.118000
      10 C7          21.8031     2.4575   -26.1368 ca            1 R1        -0.077000
      11 C8          20.5487     2.4483   -26.7446 cp            1 R1        -0.019000
      12 C9          19.8013     3.7004   -26.8583 cp            1 R1        -0.151300
      13 C10         20.4469     4.8596   -27.3211 ca            1 R1         0.403200
      14 N4          19.7732     6.0321   -27.7383 nb            1 R1        -0.624000
      15 C11         18.3802     6.1125   -27.5898 ca            1 R1         0.388200
      16 C12         17.6765     4.9717   -27.1127 ca            1 R1         0.013600
      17 C13         18.3799     3.7213   -26.7755 ca            1 R1        -0.130000
      18 C14         20.0858     1.1456   -27.2468 ca            1 R1        -0.107000
      19 C18         19.9270    -1.2235   -29.2312 c             1 R1         0.700500
      20 O1          20.7934    -1.1652   -30.1036 o             1 R1        -0.466500
      21 H2          17.1527    -2.0417   -30.8262 h1            1 R1         0.083700
      22 H3          17.5051    -0.3004   -30.9802 h1            1 R1         0.083700
      23 H1          18.5833    -1.5842   -31.7121 h1            1 R1         0.083700
      24 H18         16.3947    -2.3828   -27.2674 hn            1 R1         0.331700
      25 H5          18.6941    -2.0476   -26.4258 hn            1 R1         0.344700
      26 H6          22.8237    -0.6880   -26.7820 ha            1 R1         0.153000
      27 H7          23.6152     1.3477   -25.8605 ha            1 R1         0.160000
      28 H8          22.1782     3.3100   -25.5783 ha            1 R1         0.161000
      29 H9          21.5212     4.7566   -27.4428 h4            1 R1         0.038100
      30 H10         17.7745     6.9561   -27.9071 h4            1 R1         0.054100
      31 H11         17.8968     2.8454   -26.3526 ha            1 R1         0.143000
      32 H12         19.1696     1.0635   -27.8241 ha            1 R1         0.124000
      33 H4          15.9269    -1.9868   -28.8248 hn            1 R1         0.331700
      34 F1          16.3060     4.7287   -26.8197 f             1 R1        -0.122900
      35 C15         20.7013    -2.6752   -26.9219 cx            1 R1        -0.181700
      36 C16         20.5514    -4.0130   -27.5366 cx            1 R1        -0.107900
      37 C17         21.8983    -3.3884   -27.5655 cx            1 R1        -0.107900
      38 H13         20.6007    -2.6428   -25.8400 hc            1 R1         0.111700
      39 H14         20.4683    -4.8032   -26.7949 hc            1 R1         0.094450
      40 H15         20.2143    -4.2854   -28.5335 hc            1 R1         0.094450
      41 H16         22.2710    -2.9247   -28.4752 hc            1 R1         0.094450
      42 H17         22.6309    -3.8523   -26.9100 hc            1 R1         0.094450
@<TRIPOS>BOND
       1       19       20 1
       2       36       37 1
       3       35       36 1
       4       35       37 1
       5       16       17 1
       6       16       34 1
       7       15       16 1
       8       14       15 1
       9       13       14 1
      10       12       13 1
      11       12       17 1
      12       11       12 1
      13       11       18 1
      14       10       11 1
      15        9       10 1
      16        8        9 1
      17        7        8 1
      18        7       18 1
      19        6        7 1
      20        6       35 1
      21        6       19 1
      22        5        6 1
      23        3        4 1
      24        3        5 1
      25        2        3 1
      26        2       19 1
      27        1        2 1
      28       37       41 1
      29       37       42 1
      30       36       39 1
      31       36       40 1
      32       35       38 1
      33       18       32 1
      34       17       31 1
      35       15       30 1
      36       13       29 1
      37       10       28 1
      38        9       27 1
      39        8       26 1
      40        5       25 1
      41        4       33 1
      42        4       24 1
      43        1       23 1
      44        1       21 1
      45        1       22 1
@<TRIPOS>SUBSTRUCTURE
       1 R1              1 RESIDUE    0 **** ROOT      0
