@<TRIPOS>MOLECULE
R1
44 47 1 0 1
SMALL
USER_CHARGES
@<TRIPOS>CRYSIN
   74.6641    74.6641    74.6641   109.4712   109.4712   109.4712  1  1
@<TRIPOS>ATOM
       1 C1          17.9547    -1.2940   -30.8612 c3            1 R1         0.055300
       2 N1          18.5696    -1.2973   -29.5180 n             1 R1        -0.397400
       3 C2          17.9042    -1.5874   -28.2994 cz            1 R1         0.437600
       4 N2          16.7047    -2.1986   -28.2130 nv            1 R1        -0.461200
       5 N3          18.8267    -1.5485   -27.2961 nu            1 R1        -0.365200
       6 C3          20.1946    -1.3915   -27.7578 c3            1 R1         0.132300
       7 C8          20.8220    -0.0575   -27.1412 ca            1 R1        -0.159300
       8 C9          22.1202     0.1344   -26.6915 ca            1 R1        -0.109000
       9 C10         22.6106     1.3585   -26.2728 ca            1 R1        -0.114000
      10 C11         21.8031     2.4575   -26.1368 ca            1 R1        -0.082000
      11 C12         20.5487     2.4483   -26.7446 cp            1 R1        -0.009000
      12 C13         19.8013     3.7004   -26.8583 cp            1 R1        -0.058000
      13 C14         20.4469     4.8596   -27.3211 ca            1 R1        -0.107000
      14 C15         19.7732     6.0321   -27.7383 ca            1 R1        -0.112000
      15 C16         18.3802     6.1125   -27.5898 ca            1 R1        -0.101000
      16 C17         17.6765     4.9717   -27.1127 ca            1 R1         0.017400
      17 Cl1         15.9043     4.9098   -27.2566 cl            1 R1        -0.077400
      18 C18         18.3799     3.7213   -26.7755 ca            1 R1        -0.117000
      19 C19         20.0858     1.1456   -27.2468 ca            1 R1        -0.102000
      20 C20         19.9270    -1.2235   -29.2312 c             1 R1         0.703500
      21 O1          20.7934    -1.1652   -30.1036 o             1 R1        -0.469500
      22 H3          17.1527    -2.0417   -30.8262 h1            1 R1         0.086367
      23 H1          17.5051    -0.3004   -30.9802 h1            1 R1         0.086367
      24 H2          18.5833    -1.5842   -31.7121 h1            1 R1         0.086367
      25 H4          16.3947    -2.3828   -27.2674 hn            1 R1         0.333700
      26 H5          18.6941    -2.0476   -26.4258 hn            1 R1         0.332700
      27 H9          22.8237    -0.6880   -26.7820 ha            1 R1         0.141000
      28 H10         23.6152     1.3477   -25.8605 ha            1 R1         0.159000
      29 H11         22.1782     3.3100   -25.5783 ha            1 R1         0.161000
      30 H12         21.5212     4.7566   -27.4428 ha            1 R1         0.144000
      31 H13         20.3605     6.8734   -28.0943 ha            1 R1         0.153000
      32 H14         17.7745     6.9561   -27.9071 ha            1 R1         0.162000
      33 H15         17.8968     2.8454   -26.3526 ha            1 R1         0.135000
      34 H16         19.1696     1.0635   -27.8241 ha            1 R1         0.145000
      35 H17         15.9269    -1.9868   -28.8248 hn            1 R1         0.333700
      36 C4          20.5944    -2.4986   -26.8967 ca            1 R1        -0.383900
      37 C5          20.5000    -2.6490   -25.5347 ca            1 R1         0.464200
      38 N4          21.2695    -3.5401   -24.8252 nb            1 R1        -0.671000
      39 C6          21.9759    -4.3978   -25.5412 ca            1 R1         0.667900
      40 N5          22.0929    -4.4222   -26.8614 nb            1 R1        -0.671000
      41 C7          21.4445    -3.4603   -27.5052 ca            1 R1         0.464200
      42 H6          19.7528    -2.1066   -24.9574 h4            1 R1         0.043100
      43 H7          22.6062    -5.1093   -25.0120 h5            1 R1         0.082100
      44 H8          21.5102    -3.4503   -28.5922 h4            1 R1         0.043100
@<TRIPOS>BOND
       1       20       21 1
       2       16       17 1
       3       16       18 1
       4       15       16 1
       5       14       15 1
       6       13       14 1
       7       12       13 1
       8       12       18 1
       9       11       12 1
      10       11       19 1
      11       10       11 1
      12        9       10 1
      13        8        9 1
      14        7        8 1
      15        7       19 1
      16       40       41 1
      17       39       40 1
      18       38       39 1
      19       37       38 1
      20       36       37 1
      21       36       41 1
      22        6       36 1
      23        6        7 1
      24        6       20 1
      25        5        6 1
      26        3        4 1
      27        3        5 1
      28        2        3 1
      29        2       20 1
      30        1        2 1
      31       19       34 1
      32       18       33 1
      33       15       32 1
      34       14       31 1
      35       13       30 1
      36       10       29 1
      37        9       28 1
      38        8       27 1
      39       41       44 1
      40       39       43 1
      41       37       42 1
      42        5       26 1
      43        4       25 1
      44        4       35 1
      45        1       23 1
      46        1       24 1
      47        1       22 1
@<TRIPOS>SUBSTRUCTURE
       1 R1              1 RESIDUE    0 **** ROOT      0
