@<TRIPOS>MOLECULE
R1
45 48 1 0 1
SMALL
USER_CHARGES
@<TRIPOS>CRYSIN
   74.6097    74.6097    74.6097   109.4712   109.4712   109.4712  1  1
@<TRIPOS>ATOM
       1 C17         19.2396     3.2182   -25.9570 ca            1 R1        -0.243300
       2 C18         19.9952     4.1127   -26.7707 ca            1 R1         0.413200
       3 N4          21.2656     3.8336   -27.0991 nb            1 R1        -0.650000
       4 C19         21.7949     2.6630   -26.7079 ca            1 R1         0.415200
       5 C15         21.0788     1.6541   -25.9416 cp            1 R1        -0.182300
       6 C14         21.6883     0.2687   -25.6517 cp            1 R1        -0.016000
       7 C13         22.8785     0.1944   -24.9375 ca            1 R1        -0.088000
       8 C12         23.5009    -1.0324   -24.6824 ca            1 R1        -0.112000
       9 C11         22.8374    -2.2106   -25.1340 ca            1 R1        -0.101000
      10 C10         21.5892    -2.1786   -25.7276 ca            1 R1        -0.133300
      11 C3          20.9554    -3.4613   -26.2564 c3            1 R1         0.126300
      12 C4          21.7012    -4.7737   -25.8499 ca            1 R1        -0.153300
      13 C9          22.7023    -5.3187   -26.6926 ca            1 R1        -0.104000
      14 C8          23.4341    -6.4854   -26.2857 ca            1 R1        -0.118500
      15 C7          23.0942    -7.1014   -25.0759 ca            1 R1        -0.087000
      16 C6          22.2205    -6.4770   -24.1807 ca            1 R1        -0.118500
      17 C5          21.4684    -5.3253   -24.5826 ca            1 R1        -0.104000
      18 N3          19.5824    -3.5671   -25.8159 nu            1 R1        -0.372200
      19 C2          18.6960    -3.4031   -26.8028 cz            1 R1         0.443600
      20 N2          17.3658    -3.5522   -26.7418 nv            1 R1        -0.470200
      21 N1          19.2966    -3.2053   -28.0405 n             1 R1        -0.402400
      22 C1          18.6750    -2.5380   -29.2374 c3            1 R1         0.057300
      23 C21         20.6499    -3.3091   -27.7895 c             1 R1         0.707500
      24 O1          21.5257    -3.1564   -28.6208 o             1 R1        -0.475500
      25 C20         21.0425    -0.9446   -26.1026 ca            1 R1        -0.108000
      26 C16         19.8305     2.0348   -25.5527 ca            1 R1        -0.084000
      27 H16         19.6513     5.0354   -27.2357 h4            1 R1         0.037100
      28 H17         22.7419     2.4044   -27.1793 h4            1 R1         0.029100
      29 H13         23.3221     1.1065   -24.5495 ha            1 R1         0.159000
      30 H12         24.4169    -1.1700   -24.1155 ha            1 R1         0.159000
      31 H11         23.4094    -3.1231   -24.9938 ha            1 R1         0.160000
      32 H10         22.9813    -4.9836   -27.6872 ha            1 R1         0.140500
      33 H9          24.0900    -6.8979   -27.0466 ha            1 R1         0.156000
      34 H8          23.6105    -8.0152   -24.7972 ha            1 R1         0.158000
      35 H7          22.0117    -7.0292   -23.2691 ha            1 R1         0.156000
      36 H6          20.6753    -4.9506   -23.9423 ha            1 R1         0.140500
      37 H5          19.2178    -3.7198   -24.8843 hn            1 R1         0.336700
      38 H19         16.7999    -3.4906   -27.5786 hn            1 R1         0.331700
      39 H1          18.7434    -1.4503   -29.1122 h1            1 R1         0.083700
      40 H2          19.0962    -2.9331   -30.1701 h1            1 R1         0.083700
      41 H3          17.6112    -2.8060   -29.2425 h1            1 R1         0.083700
      42 H18         20.2025    -0.8371   -26.7825 ha            1 R1         0.128000
      43 H14         19.2236     1.3449   -24.9739 ha            1 R1         0.132000
      44 H4          16.9437    -3.3530   -25.8439 hn            1 R1         0.331700
      45 H15         19.7680     4.6852   -25.1036 ha            1 R1         0.153000
@<TRIPOS>BOND
       1       23       24 1
       2        3        4 1
       3        2        3 1
       4        1        2 1
       5       26        1 1
       6        5       26 1
       7        5        4 1
       8        6        5 1
       9        6       25 1
      10        7        6 1
      11        8        7 1
      12        9        8 1
      13       10        9 1
      14       10       25 1
      15       14       13 1
      16       15       14 1
      17       16       15 1
      18       17       16 1
      19       12       17 1
      20       12       13 1
      21       11       12 1
      22       11       10 1
      23       11       23 1
      24       18       11 1
      25       19       20 1
      26       19       18 1
      27       21       19 1
      28       21       23 1
      29       22       21 1
      30       25       42 1
      31        4       28 1
      32        2       27 1
      33        1       45 1
      34       26       43 1
      35        7       29 1
      36        8       30 1
      37        9       31 1
      38       13       32 1
      39       14       33 1
      40       15       34 1
      41       16       35 1
      42       17       36 1
      43       18       37 1
      44       20       44 1
      45       20       38 1
      46       22       39 1
      47       22       40 1
      48       22       41 1
@<TRIPOS>SUBSTRUCTURE
       1 R1              1 RESIDUE    0 **** ROOT      0
