@<TRIPOS>MOLECULE
L1
44 47 1 0 1
SMALL
USER_CHARGES
@<TRIPOS>CRYSIN
   74.7722    74.7722    74.7722   109.4712   109.4712   109.4712  1  1
@<TRIPOS>ATOM
       1 C1          19.4102    -0.7617   -31.0834 c3            1 L1         0.057300
       2 N1          20.0639    -0.7781   -29.8002 n             1 L1        -0.401400
       3 C2          19.4436    -0.9794   -28.5502 cz            1 L1         0.442600
       4 N2          18.2356    -1.4469   -28.2900 nv            1 L1        -0.469200
       5 N3          20.3890    -0.9907   -27.6221 nu            1 L1        -0.371200
       6 C3          21.7643    -1.0852   -28.1346 c3            1 L1         0.125300
       7 C4          22.5086    -2.4282   -28.2226 ca            1 L1        -0.154300
       8 C5          23.9358    -2.5371   -28.1607 ca            1 L1        -0.104500
       9 C6          24.5636    -3.7816   -28.1509 ca            1 L1        -0.117500
      10 C7          23.7246    -4.9091   -28.1222 ca            1 L1        -0.087000
      11 C8          22.3466    -4.8130   -28.1428 ca            1 L1        -0.117500
      12 C9          21.7119    -3.6000   -28.2764 ca            1 L1        -0.104500
      13 C10         22.4517     0.0672   -27.3880 ca            1 L1        -0.138300
      14 C11         22.9726    -0.1128   -26.1197 ca            1 L1        -0.092000
      15 C12         23.4384     0.9942   -25.2863 ca            1 L1        -0.119000
      16 C13         23.4339     2.2421   -25.8935 ca            1 L1        -0.059000
      17 C14         22.8871     2.4815   -27.1396 cp            1 L1        -0.129500
      18 C15         22.6872     3.9288   -27.5948 cp            1 L1         0.325500
      19 C16         22.9450     4.1674   -28.9843 ca            1 L1         0.285900
      20 N4          22.6522     5.3091   -29.6257 nb            1 L1        -0.621000
      21 C17         22.1231     6.2279   -28.7957 ca            1 L1         0.295900
      22 C18         21.9361     6.0610   -27.3734 ca            1 L1         0.293900
      23 N5          22.2513     4.8785   -26.7142 nb            1 L1        -0.617000
      24 C19         22.4440     1.3587   -27.8866 ca            1 L1        -0.101000
      25 C20         21.4513    -0.7847   -29.6302 c             1 L1         0.707500
      26 O1          22.2312    -0.6048   -30.5221 o             1 L1        -0.475500
      27 H1          19.6462    -1.7182   -31.5659 h1            1 L1         0.083700
      28 H2          18.3247    -0.6659   -30.9578 h1            1 L1         0.083700
      29 H3          19.8750     0.0169   -31.7008 h1            1 L1         0.083700
      30 H4          18.0124    -1.6173   -27.3177 hn            1 L1         0.331700
      31 H5          20.1649    -1.3762   -26.7136 hn            1 L1         0.336700
      32 H6          24.5682    -1.6571   -28.0892 ha            1 L1         0.140500
      33 H7          25.6361    -3.9095   -28.0381 ha            1 L1         0.156000
      34 H8          24.1555    -5.9036   -28.0528 ha            1 L1         0.158000
      35 H10         20.6274    -3.5998   -28.2205 ha            1 L1         0.140500
      36 H11         22.8693    -1.0895   -25.6563 ha            1 L1         0.160000
      37 H12         23.7389     0.8398   -24.2542 ha            1 L1         0.160000
      38 H13         23.8019     3.0772   -25.3049 ha            1 L1         0.170000
      39 H14         23.1660     3.3634   -29.6847 h4            1 L1         0.026100
      40 H15         21.7300     7.1613   -29.1960 h4            1 L1         0.049100
      41 H16         21.4699     6.8382   -26.7696 h4            1 L1         0.048100
      42 H17         21.8253     1.6837   -28.7178 ha            1 L1         0.129000
      43 H18         17.4246    -1.1057   -28.7900 hn            1 L1         0.331700
      44 H9          21.7786    -5.7362   -28.0761 ha            1 L1         0.156000
@<TRIPOS>BOND
       1       25       26 1
       2       22       23 1
       3       21       22 1
       4       20       21 1
       5       19       20 1
       6       18       19 1
       7       18       23 1
       8       17       18 1
       9       17       24 1
      10       16       17 1
      11       15       16 1
      12       14       15 1
      13       13       14 1
      14       13       24 1
      15       11       12 1
      16       10       11 1
      17        9       10 1
      18        8        9 1
      19        7        8 1
      20        7       12 1
      21        6        7 1
      22        6       13 1
      23        6       25 1
      24        5        6 1
      25        3        4 1
      26        3        5 1
      27        2        3 1
      28        2       25 1
      29        1        2 1
      30       24       42 1
      31       22       41 1
      32       21       40 1
      33       19       39 1
      34       16       38 1
      35       15       37 1
      36       14       36 1
      37       12       35 1
      38       11       44 1
      39       10       34 1
      40        9       33 1
      41        8       32 1
      42        5       31 1
      43        4       30 1
      44        4       43 1
      45        1       27 1
      46        1       28 1
      47        1       29 1
@<TRIPOS>SUBSTRUCTURE
       1 L1              1 RESIDUE    0 **** ROOT      0
