@<TRIPOS>MOLECULE
R1
45 48 1 0 1
SMALL
USER_CHARGES
@<TRIPOS>CRYSIN
   74.6251    74.6251    74.6251   109.4712   109.4712   109.4712  1  1
@<TRIPOS>ATOM
       1 C1          19.4102    -0.7617   -31.0834 c3            1 R1         0.056300
       2 N1          20.0639    -0.7781   -29.8002 n             1 R1        -0.400400
       3 C2          19.4436    -0.9794   -28.5502 cz            1 R1         0.441600
       4 N2          18.2356    -1.4469   -28.2900 nv            1 R1        -0.465200
       5 N3          20.3890    -0.9907   -27.6221 nu            1 R1        -0.369200
       6 C3          21.7643    -1.0852   -28.1346 c3            1 R1         0.129300
       7 C4          22.5086    -2.4282   -28.2226 ca            1 R1        -0.258600
       8 C5          23.9358    -2.5371   -28.1607 ca            1 R1        -0.060000
       9 C6          24.5636    -3.7816   -28.1509 ca            1 R1        -0.230300
      10 C7          23.7246    -4.9091   -28.1222 ca            1 R1         0.430200
      11 N4          22.3466    -4.8130   -28.1428 nb            1 R1        -0.649000
      12 C8          21.7119    -3.6000   -28.2764 ca            1 R1         0.420200
      13 C9          22.4517     0.0672   -27.3880 ca            1 R1        -0.155300
      14 C10         22.9726    -0.1128   -26.1197 ca            1 R1        -0.105000
      15 C11         23.4384     0.9942   -25.2863 ca            1 R1        -0.116000
      16 C12         23.4339     2.2421   -25.8935 ca            1 R1        -0.083000
      17 C13         22.8871     2.4815   -27.1396 cp            1 R1        -0.012000
      18 C14         22.6872     3.9288   -27.5948 cp            1 R1        -0.056000
      19 C19         22.9450     4.1674   -28.9843 ca            1 R1        -0.118000
      20 C18         22.6522     5.3091   -29.6257 ca            1 R1         0.017400
      21 C17         22.1231     6.2279   -28.7957 ca            1 R1        -0.102000
      22 C16         21.9361     6.0610   -27.3734 ca            1 R1        -0.112000
      23 C15         22.2513     4.8785   -26.7142 ca            1 R1        -0.108000
      24 C20         22.4440     1.3587   -27.8866 ca            1 R1        -0.103000
      25 C21         21.4513    -0.7847   -29.6302 c             1 R1         0.705500
      26 O1          22.2312    -0.6048   -30.5221 o             1 R1        -0.473500
      27 H2          19.6462    -1.7182   -31.5659 h1            1 R1         0.085033
      28 H3          18.3247    -0.6659   -30.9578 h1            1 R1         0.085033
      29 H1          19.8750     0.0169   -31.7008 h1            1 R1         0.085033
      30 H4          18.0124    -1.6173   -27.3177 hn            1 R1         0.332700
      31 H5          20.1649    -1.3762   -26.7136 hn            1 R1         0.335700
      32 H6          24.5682    -1.6571   -28.0892 ha            1 R1         0.167000
      33 H7          25.6361    -3.9095   -28.0381 ha            1 R1         0.169000
      34 H8          24.1555    -5.9036   -28.0528 h4            1 R1         0.048100
      35 H9          20.6274    -3.5998   -28.2205 h4            1 R1         0.018100
      36 H10         22.8693    -1.0895   -25.6563 ha            1 R1         0.145000
      37 H11         23.7389     0.8398   -24.2542 ha            1 R1         0.158000
      38 H12         23.8019     3.0772   -25.3049 ha            1 R1         0.160000
      39 H16         23.1660     3.3634   -29.6847 ha            1 R1         0.135000
      40 H15         21.7300     7.1613   -29.1960 ha            1 R1         0.161000
      41 H14         21.4699     6.8382   -26.7696 ha            1 R1         0.152000
      42 H17         21.8253     1.6837   -28.7178 ha            1 R1         0.143000
      43 H18         17.4246    -1.1057   -28.7900 hn            1 R1         0.332700
      44 Cl1         19.2425     6.0306   -28.6527 cl            1 R1        -0.078400
      45 H13         24.2622     4.9909   -26.6327 ha            1 R1         0.143000
@<TRIPOS>BOND
       1       25       26 1
       2       20       44 1
       3       20       19 1
       4       21       20 1
       5       22       21 1
       6       23       22 1
       7       18       23 1
       8       18       19 1
       9       17       18 1
      10       17       24 1
      11       16       17 1
      12       15       16 1
      13       14       15 1
      14       13       14 1
      15       13       24 1
      16       11       12 1
      17       10       11 1
      18        9       10 1
      19        8        9 1
      20        7        8 1
      21        7       12 1
      22        6        7 1
      23        6       13 1
      24        6       25 1
      25        5        6 1
      26        3        4 1
      27        3        5 1
      28        2        3 1
      29        2       25 1
      30        1        2 1
      31       24       42 1
      32       19       39 1
      33       21       40 1
      34       22       41 1
      35       23       45 1
      36       16       38 1
      37       15       37 1
      38       14       36 1
      39       12       35 1
      40       10       34 1
      41        9       33 1
      42        8       32 1
      43        5       31 1
      44        4       30 1
      45        4       43 1
      46        1       29 1
      47        1       27 1
      48        1       28 1
@<TRIPOS>SUBSTRUCTURE
       1 R1              1 RESIDUE    0 **** ROOT      0
