@<TRIPOS>MOLECULE
R1
46 49 1 0 1
SMALL
USER_CHARGES
@<TRIPOS>CRYSIN
   74.7744    74.7744    74.7744   109.4712   109.4712   109.4712  1  1
@<TRIPOS>ATOM
       1 C1          17.8798    -2.0707   -29.3738 c3            1 R1         0.056300
       2 N1          18.6717    -2.1612   -28.1922 n             1 R1        -0.402400
       3 C2          18.1476    -2.3064   -26.8829 cz            1 R1         0.433600
       4 N2          16.8583    -2.2181   -26.5685 nv            1 R1        -0.465200
       5 N3          19.1984    -2.2693   -26.0239 nu            1 R1        -0.366200
       6 C3          20.4881    -1.9722   -26.6071 c3            1 R1         0.057000
       7 C8          21.1821    -0.7052   -26.0109 ca            1 R1        -0.142300
       8 C9          22.2251    -0.8079   -25.0855 ca            1 R1        -0.122000
       9 C10         22.8575     0.3813   -24.6610 ca            1 R1        -0.114000
      10 C11         22.2752     1.6555   -24.8902 ca            1 R1        -0.087000
      11 C12         21.1552     1.7575   -25.7148 cp            1 R1        -0.009000
      12 C13         20.5233     3.0624   -25.9924 cp            1 R1        -0.057000
      13 C14         21.3478     3.9617   -26.7198 ca            1 R1        -0.109000
      14 C15         20.7974     5.0931   -27.2737 ca            1 R1        -0.113000
      15 C16         19.4389     5.3715   -27.1938 ca            1 R1        -0.103000
      16 C17         18.5961     4.5951   -26.3216 ca            1 R1         0.018400
      17 Cl1         16.8372     4.9400   -26.2022 cl            1 R1        -0.077400
      18 C18         19.1689     3.3778   -25.8127 ca            1 R1        -0.116000
      19 C19         20.7277     0.6176   -26.4128 ca            1 R1        -0.100000
      20 C20         19.9929    -1.8359   -28.0496 c             1 R1         0.704500
      21 O1          20.6410    -1.4257   -28.9743 o             1 R1        -0.471500
      22 H3          17.1045    -2.8396   -29.4791 h1            1 R1         0.084367
      23 H1          17.3298    -1.1221   -29.4081 h1            1 R1         0.084367
      24 H2          18.5459    -2.0440   -30.2450 h1            1 R1         0.084367
      25 H4          16.1326    -2.1201   -27.2669 hn            1 R1         0.331700
      26 H5          19.0476    -2.3163   -25.0243 hn            1 R1         0.329700
      27 H13         22.6682    -1.7780   -24.8808 ha            1 R1         0.132000
      28 H14         23.7218     0.3642   -24.0037 ha            1 R1         0.155000
      29 H15         22.7506     2.4934   -24.3889 ha            1 R1         0.160000
      30 H16         22.3815     3.6534   -26.8460 ha            1 R1         0.142000
      31 H17         21.2958     5.7333   -27.9956 ha            1 R1         0.152000
      32 H18         18.9403     6.1238   -27.7979 ha            1 R1         0.161000
      33 H19         18.5678     2.5890   -25.3699 ha            1 R1         0.137000
      34 H20         19.9622     0.7142   -27.1770 ha            1 R1         0.151000
      35 H21         16.5471    -2.0332   -25.6235 hn            1 R1         0.331700
      36 C4          21.2293    -3.3679   -26.3992 c3            1 R1        -0.034400
      37 C5          22.6006    -3.3647   -27.0539 cx            1 R1        -0.161700
      38 C6          23.4701    -4.5383   -27.1816 cx            1 R1        -0.112900
      39 C7          22.8039    -4.0145   -28.3667 cx            1 R1        -0.112900
      40 H6          20.7479    -4.2911   -26.7450 hc            1 R1         0.069700
      41 H7          21.4436    -3.4497   -25.3265 hc            1 R1         0.069700
      42 H8          23.1062    -2.4261   -26.8419 hc            1 R1         0.102700
      43 H9          24.5153    -4.2628   -27.0670 hc            1 R1         0.081700
      44 H10         23.0921    -5.4558   -26.7379 hc            1 R1         0.081700
      45 H11         22.1057    -4.7830   -28.6885 hc            1 R1         0.081700
      46 H12         23.3813    -3.4941   -29.1265 hc            1 R1         0.081700
@<TRIPOS>BOND
       1       20       21 1
       2       16       17 1
       3       16       18 1
       4       15       16 1
       5       14       15 1
       6       13       14 1
       7       12       13 1
       8       12       18 1
       9       11       12 1
      10       11       19 1
      11       10       11 1
      12        9       10 1
      13        8        9 1
      14        7        8 1
      15        7       19 1
      16       38       39 1
      17       37       38 1
      18       37       39 1
      19       36       37 1
      20        6       36 1
      21        6        7 1
      22        6       20 1
      23        5        6 1
      24        3        4 1
      25        3        5 1
      26        2        3 1
      27        2       20 1
      28        1        2 1
      29       19       34 1
      30       18       33 1
      31       15       32 1
      32       14       31 1
      33       13       30 1
      34       10       29 1
      35        9       28 1
      36        8       27 1
      37       39       45 1
      38       39       46 1
      39       38       43 1
      40       38       44 1
      41       37       42 1
      42       36       40 1
      43       36       41 1
      44        5       26 1
      45        4       25 1
      46        4       35 1
      47        1       23 1
      48        1       24 1
      49        1       22 1
@<TRIPOS>SUBSTRUCTURE
       1 R1              1 RESIDUE    0 **** ROOT      0
