@<TRIPOS>MOLECULE
R1
45 48 1 0 1
SMALL
USER_CHARGES
@<TRIPOS>CRYSIN
   74.6401    74.6401    74.6401   109.4712   109.4712   109.4712  1  1
@<TRIPOS>ATOM
       1 C16         17.9984     0.9434   -30.6794 c3            1 R1         0.058300
       2 N4          18.8463     0.6710   -29.4288 n             1 R1        -0.411300
       3 C15         18.3007     0.2301   -28.2220 cz            1 R1         0.467400
       4 N3          17.0162    -0.1790   -28.0798 nv            1 R1        -0.472200
       5 N2          19.1973     0.1467   -27.2861 nu            1 R1        -0.392100
       6 C11         20.6153     0.3591   -27.8220 c3            1 R1         0.109000
       7 C10         21.1569     1.5643   -27.0358 ca            1 R1        -0.140300
       8 C9          22.3629     1.4567   -26.3101 ca            1 R1        -0.126000
       9 C8          22.9933     2.6426   -25.8729 ca            1 R1        -0.113000
      10 C7          22.3429     3.8534   -26.2236 ca            1 R1        -0.090000
      11 C6          21.0894     3.9580   -26.8307 cp            1 R1         0.001000
      12 C5          20.3390     5.2879   -27.0354 cp            1 R1        -0.184300
      13 C4          20.9997     6.4074   -27.5749 ca            1 R1         0.412200
      14 N1          20.2761     7.6155   -27.7530 nb            1 R1        -0.647000
      15 C3          18.9713     7.7711   -27.3572 ca            1 R1         0.414200
      16 C2          18.2816     6.6620   -26.8211 ca            1 R1        -0.182600
      17 C19         18.9119     5.4213   -26.7844 ca            1 R1        -0.081000
      18 C18         20.5168     2.7501   -27.1169 ca            1 R1        -0.110000
      19 C17         20.2490     0.7589   -29.2303 c             1 R1         0.705500
      20 O1          21.0232     0.9862   -30.1378 o             1 R1        -0.476500
      21 H17         18.0893     0.1805   -31.4625 h1            1 R1         0.083700
      22 H18         16.9563     1.1701   -30.4225 h1            1 R1         0.083700
      23 H16         18.3537     1.8454   -31.1929 h1            1 R1         0.083700
      24 H21         16.7141    -0.5377   -27.1830 hn            1 R1         0.331700
      25 H14         19.0180    -0.4333   -26.4764 hn            1 R1         0.339700
      26 H8          22.9055     0.5281   -26.1597 ha            1 R1         0.124000
      27 H7          23.8887     2.5764   -25.2619 ha            1 R1         0.155000
      28 H6          22.8156     4.7516   -25.8376 ha            1 R1         0.161000
      29 H5          21.9522     6.2550   -28.0739 h4            1 R1         0.027100
      30 H4          18.4690     8.7169   -27.5373 h4            1 R1         0.037100
      31 H20         18.4136     4.5544   -26.3607 ha            1 R1         0.135000
      32 H19         19.5011     2.6164   -27.4771 ha            1 R1         0.161000
      33 H15         16.2755     0.0671   -28.7240 hn            1 R1         0.331700
      34 C1          16.7279     6.7361   -26.7948 c3            1 R1        -0.055800
      35 C12         20.9867    -1.0733   -27.3028 cx            1 R1        -0.182700
      36 C13         20.7844    -1.7701   -25.9779 cx            1 R1        -0.094900
      37 C14         20.1248    -2.3720   -27.1523 cx            1 R1        -0.094900
      38 H1          16.2990     6.1463   -27.6143 hc            1 R1         0.054367
      39 H2          16.5309     6.2012   -25.8575 hc            1 R1         0.054367
      40 H3          16.3326     7.7532   -26.6819 hc            1 R1         0.054367
      41 H9          21.8740    -1.2527   -27.9047 hc            1 R1         0.098700
      42 H10         21.6941    -2.2603   -25.6407 hc            1 R1         0.093950
      43 H11         20.1091    -1.3437   -25.2405 hc            1 R1         0.093950
      44 H12         19.0386    -2.3574   -27.1147 hc            1 R1         0.093950
      45 H13         20.5068    -3.3119   -27.5422 hc            1 R1         0.093950
@<TRIPOS>BOND
       1       19       20 1
       2        2        1 1
       3        2       19 1
       4        3        4 1
       5        3        2 1
       6        5        3 1
       7       36       37 1
       8       35       36 1
       9       35       37 1
      10        6       35 1
      11        6        5 1
      12        6       19 1
      13        7        6 1
      14        7       18 1
      15        8        7 1
      16        9        8 1
      17       10        9 1
      18       11       10 1
      19       11       18 1
      20       12       11 1
      21       12       17 1
      22       13       12 1
      23       14       13 1
      24       15       14 1
      25       16       15 1
      26       16       17 1
      27       34       16 1
      28       17       31 1
      29       18       32 1
      30        1       23 1
      31        1       21 1
      32        1       22 1
      33        4       33 1
      34        4       24 1
      35        5       25 1
      36       37       44 1
      37       37       45 1
      38       36       42 1
      39       36       43 1
      40       35       41 1
      41        8       26 1
      42        9       27 1
      43       10       28 1
      44       13       29 1
      45       15       30 1
      46       34       38 1
      47       34       39 1
      48       34       40 1
@<TRIPOS>SUBSTRUCTURE
       1 R1              1 RESIDUE    0 **** ROOT      0
