@<TRIPOS>MOLECULE
L1
   53    56     1     0     0
SMALL
No Charge or Current Charge


@<TRIPOS>ATOM
      1 C1          15.3110     5.3150     2.5950 C.3        1 L1       -0.101100
      2 C2          14.9700     5.0170     1.1350 C.3        1 L1        0.127400
      3 O1          15.4870     3.7530     0.7560 O.3        1 L1       -0.339900
      4 C3          15.3580     3.3820    -0.5660 C.ar       1 L1        0.134100
      5 C4          14.9830     4.2580    -1.6140 C.ar       1 L1       -0.187000
      6 C5          14.9090     3.7840    -2.9350 C.ar       1 L1       -0.086000
      7 C6          15.1870     2.4350    -3.2240 C.ar       1 L1       -0.147000
      8 C7          15.5190     1.5300    -2.1920 C.ar       1 L1       -0.030000
      9 C8          15.7100     0.0900    -2.4690 C.ar       1 L1       -0.019000
     10 C9          16.2930    -0.3590    -3.6710 C.ar       1 L1       -0.080000
     11 C10         16.4450    -1.7320    -3.9340 C.ar       1 L1       -0.122000
     12 C11         15.9770    -2.6890    -3.0150 C.ar       1 L1       -0.082000
     13 C12         15.3670    -2.2720    -1.8080 C.ar       1 L1       -0.142300
     14 C13         14.7940    -3.2740    -0.7900 C.3        1 L1        0.131300
     15 C14         15.1450    -4.7550    -1.0650 C.ar       1 L1       -0.148300
     16 C15         14.3020    -5.6420    -1.7780 C.ar       1 L1       -0.110500
     17 C16         14.6610    -6.9930    -1.9600 C.ar       1 L1       -0.118500
     18 C17         15.8810    -7.4750    -1.4580 C.ar       1 L1       -0.091000
     19 C18         16.7450    -6.6040    -0.7850 C.ar       1 L1       -0.118500
     20 C19         16.3660    -5.2670    -0.5790 C.ar       1 L1       -0.110500
     21 N1          15.2240    -2.9270     0.5660 N.3        1 L1       -0.390100
     22 C20         14.2060    -2.6300     1.3710 C.cat      1 L1        0.464400
     23 N2          14.3870    -2.3470     2.6640 N.3        1 L1       -0.473200
     24 N3          13.0340    -2.6640     0.7230 N.am       1 L1       -0.412300
     25 C21         11.7160    -2.3160     1.2690 C.3        1 L1        0.058300
     26 C22         13.2730    -3.0390    -0.6330 C.2        1 L1        0.705500
     27 O2          12.3890    -3.1130    -1.4960 O.2        1 L1       -0.468500
     28 C23         15.2700    -0.8820    -1.5450 C.ar       1 L1       -0.105000
     29 C24         15.6150     2.0340    -0.8760 C.ar       1 L1       -0.157000
     30 H1          14.9230     6.2870     2.8970 H          1 L1        0.052033
     31 H2          14.8800     4.5680     3.2560 H          1 L1        0.052033
     32 H3          16.3870     5.3160     2.7610 H          1 L1        0.052033
     33 H4          13.8920     5.0230     0.9900 H          1 L1        0.044700
     34 H5          15.3900     5.8040     0.5180 H          1 L1        0.044700
     35 H6          14.7480     5.2970    -1.4410 H          1 L1        0.149000
     36 H7          14.6160     4.4610    -3.7230 H          1 L1        0.146000
     37 H8          15.1000     2.0870    -4.2440 H          1 L1        0.141000
     38 H9          16.6340     0.3560    -4.4040 H          1 L1        0.158000
     39 H10         16.9150    -2.0430    -4.8560 H          1 L1        0.156000
     40 H11         16.0920    -3.7360    -3.2600 H          1 L1        0.155000
     41 H12         13.3610    -5.3120    -2.1810 H          1 L1        0.144000
     42 H13         13.9960    -7.6660    -2.4820 H          1 L1        0.156000
     43 H14         16.1580    -8.5080    -1.5700 H          1 L1        0.157000
     44 H15         17.6910    -6.9580    -0.4010 H          1 L1        0.156000
     45 H16         17.0280    -4.6320    -0.0190 H          1 L1        0.144000
     46 H17         16.2050    -2.9150     0.8450 H          1 L1        0.339700
     47 H18         13.6480    -2.0490     3.3000 H          1 L1        0.330200
     48 H19         10.9190    -2.8650     0.7660 H          1 L1        0.082367
     49 H20         11.6610    -2.5400     2.3330 H          1 L1        0.082367
     50 H21         11.5360    -1.2500     1.1270 H          1 L1        0.082367
     51 H22         14.8040    -0.5410    -0.6320 H          1 L1        0.128000
     52 H23         15.8750     1.3710    -0.0680 H          1 L1        0.137000
     53 H24         15.3330    -2.3470     3.0480 H          1 L1        0.330200
@<TRIPOS>BOND
     1     1     2 1   
     2     1    30 1   
     3     1    31 1   
     4     1    32 1   
     5     2     3 1   
     6     2    33 1   
     7     2    34 1   
     8     3     4 1   
     9     4     5 ar  
    10     4    29 ar  
    11     5     6 ar  
    12     5    35 1   
    13     6     7 ar  
    14     6    36 1   
    15     7     8 ar  
    16     7    37 1   
    17     8     9 1   
    18     8    29 ar  
    19     9    10 ar  
    20     9    28 ar  
    21    10    11 ar  
    22    10    38 1   
    23    11    12 ar  
    24    11    39 1   
    25    12    13 ar  
    26    12    40 1   
    27    13    14 1   
    28    13    28 ar  
    29    14    15 1   
    30    14    21 1   
    31    14    26 1   
    32    15    16 ar  
    33    15    20 ar  
    34    16    17 ar  
    35    16    41 1   
    36    17    18 ar  
    37    17    42 1   
    38    18    19 ar  
    39    18    43 1   
    40    19    20 ar  
    41    19    44 1   
    42    20    45 1   
    43    21    22 2   
    44    21    46 1   
    45    22    23 1   
    46    22    24 1   
    47    23    47 1   
    48    23    53 1   
    49    24    25 1   
    50    24    26 am  
    51    25    48 1   
    52    25    49 1   
    53    25    50 1   
    54    26    27 2   
    55    28    51 1   
    56    29    52 1   
@<TRIPOS>SUBSTRUCTURE
     1 L1          1 TEMP              0 ****  ****    0 ROOT
