@<TRIPOS>MOLECULE
R1
45 48 1 0 1
SMALL
USER_CHARGES
@<TRIPOS>CRYSIN
   74.6251    74.6251    74.6251   109.4712   109.4712   109.4712  1  1
@<TRIPOS>ATOM
       1 C1          17.7767    -2.1826   -29.8542 c3            1 R1         0.056300
       2 N1          18.5377    -2.2058   -28.6065 n             1 R1        -0.400400
       3 C2          17.9959    -2.4935   -27.3456 cz            1 R1         0.441600
       4 N2          16.7270    -2.8317   -27.0788 nv            1 R1        -0.465200
       5 N3          18.9424    -2.3917   -26.4391 nu            1 R1        -0.369200
       6 C3          20.2620    -2.0083   -26.9326 c3            1 R1         0.129300
       7 C4          21.2430    -3.1999   -26.7289 ca            1 R1        -0.258600
       8 C8          20.9887    -4.3043   -25.8291 ca            1 R1         0.420200
       9 N4          21.9358    -5.3242   -25.6666 nb            1 R1        -0.649000
      10 C7          23.1674    -5.3272   -26.3567 ca            1 R1         0.430200
      11 C6          23.5100    -4.2060   -27.1963 ca            1 R1        -0.230300
      12 C5          22.5712    -3.1446   -27.2531 ca            1 R1        -0.060000
      13 C9          20.7068    -0.7057   -26.2012 ca            1 R1        -0.155300
      14 C10         21.6004    -0.7264   -25.1110 ca            1 R1        -0.105000
      15 C11         21.9939     0.4316   -24.4263 ca            1 R1        -0.116000
      16 C12         21.5315     1.6355   -24.9662 ca            1 R1        -0.083000
      17 C13         20.6607     1.7257   -26.0249 cp            1 R1        -0.012000
      18 C14         20.1462     3.0315   -26.4933 cp            1 R1        -0.056000
      19 C15         20.9736     4.0857   -26.9642 ca            1 R1        -0.108000
      20 C16         20.4655     5.3856   -27.2054 ca            1 R1        -0.112000
      21 C17         19.0782     5.6662   -27.0110 ca            1 R1        -0.102000
      22 C18         18.2598     4.6565   -26.5389 ca            1 R1         0.017400
      23 C19         18.7920     3.3553   -26.3015 ca            1 R1        -0.118000
      24 C20         20.2221     0.5578   -26.5887 ca            1 R1        -0.103000
      25 C21         19.8501    -1.7614   -28.4055 c             1 R1         0.705500
      26 O1          20.5727    -1.2118   -29.2137 o             1 R1        -0.473500
      27 H1          18.3218    -2.4599   -30.7649 h1            1 R1         0.085033
      28 H2          17.1401    -3.0720   -29.7697 h1            1 R1         0.085033
      29 H3          17.2146    -1.2418   -29.9038 h1            1 R1         0.085033
      30 H4          16.3100    -3.0354   -26.1795 hn            1 R1         0.332700
      31 H5          18.7613    -2.2789   -25.4498 hn            1 R1         0.335700
      32 H9          20.0613    -4.4045   -25.2730 h4            1 R1         0.018100
      33 H8          23.7939    -6.2013   -26.2059 h4            1 R1         0.048100
      34 H7          24.4947    -4.1475   -27.6506 ha            1 R1         0.169000
      35 H6          22.8796    -2.2387   -27.7666 ha            1 R1         0.167000
      36 H10         21.8777    -1.7291   -24.7994 ha            1 R1         0.145000
      37 H11         22.6523     0.3740   -23.5646 ha            1 R1         0.158000
      38 H12         21.9112     2.5472   -24.5145 ha            1 R1         0.160000
      39 H13         21.9633     3.8348   -27.3342 ha            1 R1         0.143000
      40 H14         21.0870     6.1387   -27.6808 ha            1 R1         0.152000
      41 H15         18.6598     6.6255   -27.3011 ha            1 R1         0.161000
      42 H16         18.0765     2.6994   -25.8145 ha            1 R1         0.135000
      43 H17         19.3757     0.5923   -27.2682 ha            1 R1         0.143000
      44 H18         16.0186    -2.5506   -27.7446 hn            1 R1         0.332700
      45 Cl1         16.4852     4.5928   -27.1262 cl            1 R1        -0.078400
@<TRIPOS>BOND
       1       25       26 1
       2       22       45 1
       3       22       23 1
       4       21       22 1
       5       20       21 1
       6       19       20 1
       7       18       19 1
       8       18       23 1
       9       17       18 1
      10       17       24 1
      11       16       17 1
      12       15       16 1
      13       14       15 1
      14       13       14 1
      15       13       24 1
      16        9        8 1
      17       10        9 1
      18       11       10 1
      19       12       11 1
      20        7       12 1
      21        7        8 1
      22        6        7 1
      23        6       13 1
      24        6       25 1
      25        5        6 1
      26        3        4 1
      27        3        5 1
      28        2        3 1
      29        2       25 1
      30        1        2 1
      31       24       43 1
      32       23       42 1
      33       21       41 1
      34       20       40 1
      35       19       39 1
      36       16       38 1
      37       15       37 1
      38       14       36 1
      39        8       32 1
      40       10       33 1
      41       11       34 1
      42       12       35 1
      43        5       31 1
      44        4       30 1
      45        4       44 1
      46        1       27 1
      47        1       28 1
      48        1       29 1
@<TRIPOS>SUBSTRUCTURE
       1 R1              1 RESIDUE    0 **** ROOT      0
