@<TRIPOS>MOLECULE
L1
46 49 1 0 1
SMALL
USER_CHARGES
@<TRIPOS>CRYSIN
   74.6661    74.6661    74.6661   109.4712   109.4712   109.4712  1  1
@<TRIPOS>ATOM
       1 C1          18.0184    -1.7000   -30.0584 c3            1 L1         0.057300
       2 N1          18.9779    -2.0152   -28.9127 n             1 L1        -0.408400
       3 C2          18.5750    -2.2133   -27.5838 cz            1 L1         0.440600
       4 N2          17.3285    -2.0290   -27.1414 nv            1 L1        -0.474200
       5 N3          19.6531    -2.1851   -26.7939 nu            1 L1        -0.374200
       6 C3          20.9173    -2.1301   -27.4973 c3            1 L1         0.082000
       7 C4          21.6960    -0.8628   -27.1422 ca            1 L1        -0.149300
       8 C5          23.0397    -0.8903   -26.5503 ca            1 L1        -0.090000
       9 C6          23.7109     0.2101   -26.1988 ca            1 L1        -0.119000
      10 C7          23.1350     1.4694   -26.5028 ca            1 L1        -0.080000
      11 C8          21.8133     1.5737   -27.0502 cp            1 L1        -0.013000
      12 C9          21.2345     2.9416   -27.2601 cp            1 L1        -0.054000
      13 C10         22.0245     3.9899   -27.8535 ca            1 L1        -0.107000
      14 C11         21.4692     5.2577   -27.9732 ca            1 L1        -0.111000
      15 C12         20.1757     5.5929   -27.5663 ca            1 L1        -0.103000
      16 C13         19.3726     4.5287   -27.0410 ca            1 L1         0.016400
      17 C14         19.9421     3.2592   -26.8281 ca            1 L1        -0.121000
      18 C15         21.1132     0.3743   -27.3549 ca            1 L1        -0.113000
      19 C20         20.3383    -1.9433   -28.9546 c             1 L1         0.700500
      20 O1          20.9874    -1.7471   -29.9707 o             1 L1        -0.462500
      21 H1          17.3868    -0.8445   -29.7890 h1            1 L1         0.083033
      22 H2          17.4978    -2.6464   -30.2501 h1            1 L1         0.083033
      23 H3          18.5881    -1.3815   -30.9402 h1            1 L1         0.083033
      24 H4          16.5386    -1.7463   -27.7073 hn            1 L1         0.330700
      25 H5          19.5942    -2.1969   -25.7837 hn            1 L1         0.341700
      26 H6          23.4524    -1.8762   -26.3577 ha            1 L1         0.149000
      27 H7          24.5566     0.0408   -25.5389 ha            1 L1         0.158000
      28 H8          23.5707     2.3933   -26.1342 ha            1 L1         0.160000
      29 H9          23.0740     3.8191   -28.0740 ha            1 L1         0.145000
      30 H11         19.8260     6.6206   -27.5971 ha            1 L1         0.162000
      31 H12         19.3386     2.4010   -26.5476 ha            1 L1         0.132000
      32 H13         20.1360     0.3936   -27.8283 ha            1 L1         0.128000
      33 H21         16.9633    -2.1031   -26.2005 hn            1 L1         0.330700
      34 Cl1         17.5926     4.8576   -26.7520 cl            1 L1        -0.081400
      35 C16         21.7675    -3.4202   -27.4511 cy            1 L1        -0.103700
      36 C17         22.0776    -4.0730   -26.0385 cy            1 L1        -0.086900
      37 C18         22.3102    -5.3656   -26.8176 cy            1 L1        -0.088400
      38 C19         21.1712    -4.8794   -27.7959 cy            1 L1        -0.086900
      39 H10         22.0906     6.1138   -28.2191 ha            1 L1         0.153000
      40 H14         22.6274    -3.2427   -28.1054 hc            1 L1         0.108700
      41 H15         21.2151    -4.0625   -25.3640 hc            1 L1         0.061200
      42 H16         22.8610    -3.6823   -25.3807 hc            1 L1         0.061200
      43 H17         23.3355    -5.3157   -27.1988 hc            1 L1         0.067700
      44 H18         22.2303    -6.3413   -26.3272 hc            1 L1         0.067700
      45 H19         20.1607    -4.9715   -27.3843 hc            1 L1         0.061200
      46 H20         21.2288    -5.2231   -28.8339 hc            1 L1         0.061200
@<TRIPOS>BOND
       1       19       20 1
       2       37       38 1
       3       36       37 1
       4       35       36 1
       5       35       38 1
       6       16       34 1
       7       16       17 1
       8       15       16 1
       9       14       15 1
      10       13       14 1
      11       12       13 1
      12       12       17 1
      13       11       12 1
      14       11       18 1
      15       10       11 1
      16        9       10 1
      17        8        9 1
      18        7        8 1
      19        7       18 1
      20        6        7 1
      21        6       35 1
      22        6       19 1
      23        5        6 1
      24        3        4 1
      25        3        5 1
      26        2        3 1
      27        2       19 1
      28        1        2 1
      29       38       45 1
      30       38       46 1
      31       37       43 1
      32       37       44 1
      33       36       41 1
      34       36       42 1
      35       35       40 1
      36       18       32 1
      37       17       31 1
      38       15       30 1
      39       14       39 1
      40       13       29 1
      41       10       28 1
      42        9       27 1
      43        8       26 1
      44        5       25 1
      45        4       24 1
      46        4       33 1
      47        1       21 1
      48        1       22 1
      49        1       23 1
@<TRIPOS>SUBSTRUCTURE
       1 L1              1 RESIDUE    0 **** ROOT      0
