@<TRIPOS>MOLECULE
R1
45 48 1 0 1
SMALL
USER_CHARGES
@<TRIPOS>CRYSIN
   74.6401    74.6401    74.6401   109.4712   109.4712   109.4712  1  1
@<TRIPOS>ATOM
       1 C16         18.0184    -1.7000   -30.0584 c3            1 R1         0.058300
       2 N4          18.9779    -2.0152   -28.9127 n             1 R1        -0.411300
       3 C15         18.5750    -2.2133   -27.5838 cz            1 R1         0.467400
       4 N3          17.3285    -2.0290   -27.1414 nv            1 R1        -0.472200
       5 N2          19.6531    -2.1851   -26.7939 nu            1 R1        -0.392100
       6 C11         20.9173    -2.1301   -27.4973 c3            1 R1         0.109000
       7 C10         21.6960    -0.8628   -27.1422 ca            1 R1        -0.140300
       8 C9          23.0397    -0.8903   -26.5503 ca            1 R1        -0.126000
       9 C8          23.7109     0.2101   -26.1988 ca            1 R1        -0.113000
      10 C7          23.1350     1.4694   -26.5028 ca            1 R1        -0.090000
      11 C6          21.8133     1.5737   -27.0502 cp            1 R1         0.001000
      12 C5          21.2345     2.9416   -27.2601 cp            1 R1        -0.184300
      13 C4          22.0245     3.9899   -27.8535 ca            1 R1         0.412200
      14 N1          21.4692     5.2577   -27.9732 nb            1 R1        -0.647000
      15 C3          20.1757     5.5929   -27.5663 ca            1 R1         0.414200
      16 C2          19.3726     4.5287   -27.0410 ca            1 R1        -0.182600
      17 C19         19.9421     3.2592   -26.8281 ca            1 R1        -0.081000
      18 C18         21.1132     0.3743   -27.3549 ca            1 R1        -0.110000
      19 C17         20.3383    -1.9433   -28.9546 c             1 R1         0.705500
      20 O1          20.9874    -1.7471   -29.9707 o             1 R1        -0.476500
      21 H17         17.3868    -0.8445   -29.7890 h1            1 R1         0.083700
      22 H16         17.4978    -2.6464   -30.2501 h1            1 R1         0.083700
      23 H18         18.5881    -1.3815   -30.9402 h1            1 R1         0.083700
      24 H15         16.5386    -1.7463   -27.7073 hn            1 R1         0.331700
      25 H14         19.5942    -2.1969   -25.7837 hn            1 R1         0.339700
      26 H8          23.4524    -1.8762   -26.3577 ha            1 R1         0.124000
      27 H7          24.5566     0.0408   -25.5389 ha            1 R1         0.155000
      28 H6          23.5707     2.3933   -26.1342 ha            1 R1         0.161000
      29 H5          23.0740     3.8191   -28.0740 h4            1 R1         0.027100
      30 H4          19.8260     6.6206   -27.5971 h4            1 R1         0.037100
      31 H20         19.3386     2.4010   -26.5476 ha            1 R1         0.135000
      32 H19         20.1360     0.3936   -27.8283 ha            1 R1         0.161000
      33 H21         16.9633    -2.1031   -26.2005 hn            1 R1         0.331700
      34 C1          17.8126     4.7421   -26.6423 c3            1 R1        -0.055800
      35 C12         21.2978    -3.4524   -26.9355 cx            1 R1        -0.182700
      36 C13         21.2259    -4.0099   -25.5333 cx            1 R1        -0.094900
      37 C14         20.3610    -4.6452   -26.5456 cx            1 R1        -0.094900
      38 H1          17.2260     4.1274   -27.3361 hc            1 R1         0.054367
      39 H2          17.7052     4.3112   -25.6392 hc            1 R1         0.054367
      40 H3          17.5226     5.7982   -26.5790 hc            1 R1         0.054367
      41 H9          22.0742    -3.7668   -27.6283 hc            1 R1         0.098700
      42 H10         22.1302    -4.5537   -25.2722 hc            1 R1         0.093950
      43 H11         20.6980    -3.4591   -24.7590 hc            1 R1         0.093950
      44 H12         19.2956    -4.5239   -26.3671 hc            1 R1         0.093950
      45 H13         20.6056    -5.6474   -26.8881 hc            1 R1         0.093950
@<TRIPOS>BOND
       1       19       20 1
       2        2        1 1
       3        2       19 1
       4        3        4 1
       5        3        2 1
       6        5        3 1
       7       36       37 1
       8       35       36 1
       9       35       37 1
      10        6       35 1
      11        6        5 1
      12        6       19 1
      13        7        6 1
      14        7       18 1
      15        8        7 1
      16        9        8 1
      17       10        9 1
      18       11       10 1
      19       11       18 1
      20       12       11 1
      21       12       17 1
      22       13       12 1
      23       14       13 1
      24       15       14 1
      25       16       15 1
      26       16       17 1
      27       34       16 1
      28       17       31 1
      29       18       32 1
      30        1       22 1
      31        1       21 1
      32        1       23 1
      33        4       24 1
      34        4       33 1
      35        5       25 1
      36       37       44 1
      37       37       45 1
      38       36       42 1
      39       36       43 1
      40       35       41 1
      41        8       26 1
      42        9       27 1
      43       10       28 1
      44       13       29 1
      45       15       30 1
      46       34       38 1
      47       34       39 1
      48       34       40 1
@<TRIPOS>SUBSTRUCTURE
       1 R1              1 RESIDUE    0 **** ROOT      0
