@<TRIPOS>MOLECULE
L1
45 48 1 0 1
SMALL
USER_CHARGES
@<TRIPOS>CRYSIN
   74.7794    74.7794    74.7794   109.4712   109.4712   109.4712  1  1
@<TRIPOS>ATOM
       1 C1          17.9384    -2.8847   -30.6065 c3            1 L1         0.058300
       2 N1          18.4943    -2.7410   -29.2246 n             1 L1        -0.395400
       3 C2          17.8694    -3.0613   -28.0457 cz            1 L1         0.443600
       4 N2          16.5946    -3.4178   -27.9278 nv            1 L1        -0.462200
       5 N3          18.7726    -3.1046   -27.0726 nu            1 L1        -0.333200
       6 C3          20.1536    -3.0824   -27.5007 c3            1 L1         0.014700
       7 C4          20.9477    -1.8563   -26.9181 ca            1 L1        -0.126300
       8 C5          22.2794    -2.0040   -26.5278 ca            1 L1        -0.107000
       9 C6          23.0842    -0.9730   -26.1113 ca            1 L1        -0.117000
      10 C7          22.5680     0.3735   -26.2186 ca            1 L1        -0.086000
      11 C8          21.1795     0.5597   -26.6024 cp            1 L1        -0.017000
      12 C9          20.6456     2.0082   -26.8160 cp            1 L1        -0.056000
      13 C10         21.4876     2.9891   -27.4688 ca            1 L1        -0.112000
      14 C11         21.0217     4.3050   -27.7576 ca            1 L1        -0.114000
      15 C12         19.6220     4.6301   -27.5612 ca            1 L1        -0.105000
      16 C13         18.8128     3.6661   -26.9080 ca            1 L1         0.017400
      17 C14         19.2586     2.3759   -26.6047 ca            1 L1        -0.118000
      18 C15         20.4274    -0.5316   -26.9862 ca            1 L1        -0.102000
      19 C16         20.6491    -4.5565   -27.2727 ca            1 L1         0.324600
      20 C17         20.7779    -5.1537   -25.9632 ca            1 L1        -0.179300
      21 C18         21.3740    -6.3769   -25.8506 ca            1 L1        -0.084000
      22 C19         21.7925    -7.0401   -26.9920 ca            1 L1        -0.202300
      23 C20         21.4593    -6.5377   -28.2427 ca            1 L1         0.411200
      24 N4          20.8561    -5.3530   -28.3696 nb            1 L1        -0.701000
      25 C21         19.8657    -2.8316   -29.0222 c             1 L1         0.714500
      26 O1          20.6737    -2.6442   -29.8521 o             1 L1        -0.477500
      27 H1          18.6254    -3.5759   -31.1102 h1            1 L1         0.083033
      28 H2          16.9620    -3.3736   -30.5016 h1            1 L1         0.083033
      29 H3          17.8441    -1.9421   -31.1598 h1            1 L1         0.083033
      30 H4          16.1016    -3.5456   -27.0533 hn            1 L1         0.330700
      31 H5          18.5216    -3.5005   -26.1757 hn            1 L1         0.328700
      32 H6          22.8458    -2.8945   -26.7841 ha            1 L1         0.151000
      33 H7          24.1374    -1.0667   -25.8636 ha            1 L1         0.157000
      34 H8          23.1859     1.2112   -25.9089 ha            1 L1         0.159000
      35 H9          22.4948     2.7394   -27.7894 ha            1 L1         0.141000
      36 H11         19.1393     5.5524   -27.8707 ha            1 L1         0.160000
      37 H12         18.6107     1.6340   -26.1473 ha            1 L1         0.142000
      38 H13         19.4063    -0.3675   -27.3176 ha            1 L1         0.138000
      39 H14         20.4630    -4.6961   -25.0301 ha            1 L1         0.171000
      40 H15         21.4181    -6.8958   -24.8976 ha            1 L1         0.166000
      41 H16         22.3280    -7.9730   -26.8423 ha            1 L1         0.169000
      42 H17         21.6522    -7.1478   -29.1238 h4            1 L1         0.041100
      43 H18         15.9272    -3.0680   -28.6033 hn            1 L1         0.330700
      44 Cl1         17.0518     3.9944   -26.6434 cl            1 L1        -0.075400
      45 H10         21.6215     5.1290   -28.1327 ha            1 L1         0.151000
@<TRIPOS>BOND
       1       25       26 1
       2       23       24 1
       3       22       23 1
       4       21       22 1
       5       20       21 1
       6       19       20 1
       7       19       24 1
       8       16       44 1
       9       16       17 1
      10       15       16 1
      11       14       15 1
      12       13       14 1
      13       12       13 1
      14       12       17 1
      15       11       12 1
      16       11       18 1
      17       10       11 1
      18        9       10 1
      19        8        9 1
      20        7        8 1
      21        7       18 1
      22        6        7 1
      23        6       19 1
      24        6       25 1
      25        5        6 1
      26        3        4 1
      27        3        5 1
      28        2        3 1
      29        2       25 1
      30        1        2 1
      31       23       42 1
      32       22       41 1
      33       21       40 1
      34       20       39 1
      35       18       38 1
      36       17       37 1
      37       15       36 1
      38       14       45 1
      39       13       35 1
      40       10       34 1
      41        9       33 1
      42        8       32 1
      43        5       31 1
      44        4       30 1
      45        4       43 1
      46        1       27 1
      47        1       28 1
      48        1       29 1
@<TRIPOS>SUBSTRUCTURE
       1 L1              1 RESIDUE    0 **** ROOT      0
