@<TRIPOS>MOLECULE
R1
45 48 1 0 1
SMALL
USER_CHARGES
@<TRIPOS>CRYSIN
   74.6957    74.6957    74.6957   109.4712   109.4712   109.4712  1  1
@<TRIPOS>ATOM
       1 C1          17.9384    -2.8847   -30.6065 c3            1 R1         0.057300
       2 N1          18.4943    -2.7410   -29.2246 n             1 R1        -0.401400
       3 C2          17.8694    -3.0613   -28.0457 cz            1 R1         0.442600
       4 N2          16.5946    -3.4178   -27.9278 nv            1 R1        -0.468200
       5 N3          18.7726    -3.1046   -27.0726 nu            1 R1        -0.370200
       6 C3          20.1536    -3.0824   -27.5007 c3            1 R1         0.123300
       7 C10         20.9477    -1.8563   -26.9181 ca            1 R1        -0.132300
       8 C11         22.2794    -2.0040   -26.5278 ca            1 R1        -0.096000
       9 C12         23.0842    -0.9730   -26.1113 ca            1 R1        -0.112000
      10 C13         22.5680     0.3735   -26.2186 ca            1 R1        -0.085000
      11 C14         21.1795     0.5597   -26.6024 cp            1 R1        -0.024000
      12 C15         20.6456     2.0082   -26.8160 cp            1 R1        -0.149300
      13 C16         21.4876     2.9891   -27.4688 ca            1 R1         0.398200
      14 N4          21.0217     4.3050   -27.7576 nb            1 R1        -0.626000
      15 C17         19.6220     4.6301   -27.5612 ca            1 R1         0.384200
      16 C18         18.8128     3.6661   -26.9080 ca            1 R1         0.015600
      17 C19         19.2586     2.3759   -26.6047 ca            1 R1        -0.129000
      18 C20         20.4274    -0.5316   -26.9862 ca            1 R1        -0.103000
      19 C4          20.6491    -4.5565   -27.2727 ca            1 R1        -0.154300
      20 C5          20.7779    -5.1537   -25.9632 ca            1 R1        -0.104500
      21 C6          21.3740    -6.3769   -25.8506 ca            1 R1        -0.117500
      22 C7          21.7925    -7.0401   -26.9920 ca            1 R1        -0.087000
      23 C8          21.4593    -6.5377   -28.2427 ca            1 R1        -0.117500
      24 C9          20.8561    -5.3530   -28.3696 ca            1 R1        -0.104500
      25 C21         19.8657    -2.8316   -29.0222 c             1 R1         0.707500
      26 O1          20.6737    -2.6442   -29.8521 o             1 R1        -0.474500
      27 H1          18.6254    -3.5759   -31.1102 h1            1 R1         0.084700
      28 H2          16.9620    -3.3736   -30.5016 h1            1 R1         0.084700
      29 H3          17.8441    -1.9421   -31.1598 h1            1 R1         0.084700
      30 H4          16.1016    -3.5456   -27.0533 hn            1 R1         0.332200
      31 H5          18.5216    -3.5005   -26.1757 hn            1 R1         0.335700
      32 H11         22.8458    -2.8945   -26.7841 ha            1 R1         0.161000
      33 H12         24.1374    -1.0667   -25.8636 ha            1 R1         0.160000
      34 H13         23.1859     1.2112   -25.9089 ha            1 R1         0.159000
      35 H14         22.4948     2.7394   -27.7894 h4            1 R1         0.035100
      36 H15         19.1393     5.5524   -27.8707 h4            1 R1         0.052100
      37 H16         18.6107     1.6340   -26.1473 ha            1 R1         0.148000
      38 H17         19.4063    -0.3675   -27.3176 ha            1 R1         0.130000
      39 H6          20.4630    -4.6961   -25.0301 ha            1 R1         0.140500
      40 H7          21.4181    -6.8958   -24.8976 ha            1 R1         0.157000
      41 H8          22.3280    -7.9730   -26.8423 ha            1 R1         0.158000
      42 H9          21.6522    -7.1478   -29.1238 ha            1 R1         0.157000
      43 H18         15.9272    -3.0680   -28.6033 hn            1 R1         0.332200
      44 F1          17.4213     3.5974   -26.5785 f             1 R1        -0.120900
      45 H10         21.7521    -4.9165   -29.2068 ha            1 R1         0.140500
@<TRIPOS>BOND
       1       25       26 1
       2       16       44 1
       3       16       17 1
       4       15       16 1
       5       14       15 1
       6       13       14 1
       7       12       13 1
       8       12       17 1
       9       11       12 1
      10       11       18 1
      11       10       11 1
      12        9       10 1
      13        8        9 1
      14        7        8 1
      15        7       18 1
      16       23       24 1
      17       22       23 1
      18       21       22 1
      19       20       21 1
      20       19       20 1
      21       19       24 1
      22        6       19 1
      23        6        7 1
      24        6       25 1
      25        5        6 1
      26        3        4 1
      27        3        5 1
      28        2        3 1
      29        2       25 1
      30        1        2 1
      31       18       38 1
      32       17       37 1
      33       15       36 1
      34       13       35 1
      35       10       34 1
      36        9       33 1
      37        8       32 1
      38       24       45 1
      39       23       42 1
      40       22       41 1
      41       21       40 1
      42       20       39 1
      43        5       31 1
      44        4       30 1
      45        4       43 1
      46        1       27 1
      47        1       28 1
      48        1       29 1
@<TRIPOS>SUBSTRUCTURE
       1 R1              1 RESIDUE    0 **** ROOT      0
