@<TRIPOS>MOLECULE
L1
   47    50     1     0     0
SMALL
No Charge or Current Charge


@<TRIPOS>ATOM
      1 C1          14.8880     4.7760     1.2260 C.3        1 L1        0.110700
      2 O1          15.4960     3.5600     0.8390 O.3        1 L1       -0.328900
      3 C2          15.4240     3.2070    -0.4880 C.ar       1 L1        0.132100
      4 C3          15.1330     4.1080    -1.5370 C.ar       1 L1       -0.183000
      5 C4          15.1100     3.6470    -2.8640 C.ar       1 L1       -0.087000
      6 C5          15.3680     2.2910    -3.1540 C.ar       1 L1       -0.146000
      7 C6          15.6270     1.3610    -2.1170 C.ar       1 L1       -0.038000
      8 C7          15.8150    -0.0840    -2.3960 C.ar       1 L1       -0.004000
      9 C8          16.3950    -0.4890    -3.6080 C.ar       1 L1       -0.088000
     10 C9          16.5050    -1.8470    -3.9390 C.ar       1 L1       -0.116000
     11 C10         16.0400    -2.8370    -3.0540 C.ar       1 L1       -0.129000
     12 C11         15.4690    -2.4840    -1.8060 C.ar       1 L1       -0.145300
     13 C12         14.8770    -3.4950    -0.7770 C.3        1 L1        0.106000
     14 C13         15.0970    -5.0250    -0.8830 C.3        1 L1       -0.178700
     15 C14         14.8830    -5.8410    -2.1340 C.3        1 L1       -0.095400
     16 C15         16.2580    -5.7570    -1.5170 C.3        1 L1       -0.095400
     17 N1          15.2830    -3.1270     0.5770 N.3        1 L1       -0.386100
     18 C16         14.2460    -2.7940     1.3470 C.cat      1 L1        0.463400
     19 N2          14.3920    -2.4610     2.6340 N.3        1 L1       -0.471200
     20 N3          13.0880    -2.8500     0.6740 N.am       1 L1       -0.409300
     21 C17         11.7610    -2.5500     1.2230 C.3        1 L1        0.057300
     22 C18         13.3580    -3.2550    -0.6670 C.2        1 L1        0.703500
     23 O2          12.4980    -3.3910    -1.5420 O.2        1 L1       -0.471500
     24 C19         15.3880    -1.0930    -1.5000 C.ar       1 L1       -0.107000
     25 C20         15.6600     1.8540    -0.7970 C.ar       1 L1       -0.146000
     26 H1          14.9250     4.8680     2.3120 H          1 L1        0.051367
     27 H2          15.3960     5.6330     0.7980 H          1 L1        0.051367
     28 H3          13.8480     4.8040     0.9120 H          1 L1        0.051367
     29 H4          14.9340     5.1530    -1.3550 H          1 L1        0.150000
     30 H5          14.8810     4.3380    -3.6570 H          1 L1        0.146000
     31 H6          15.3230     1.9590    -4.1830 H          1 L1        0.139000
     32 H7          16.7450     0.2550    -4.3040 H          1 L1        0.161000
     33 H8          16.9430    -2.1070    -4.8910 H          1 L1        0.153000
     34 H9          16.1430    -3.8500    -3.3920 H          1 L1        0.125000
     35 H10         14.7320    -5.5260     0.0160 H          1 L1        0.098700
     36 H11         14.3440    -6.7810    -2.0390 H          1 L1        0.093450
     37 H12         14.6920    -5.3030    -3.0520 H          1 L1        0.093450
     38 H13         17.0100    -5.2040    -2.0610 H          1 L1        0.093450
     39 H14         16.6260    -6.6390    -0.9950 H          1 L1        0.093450
     40 H15         16.2620    -3.0820     0.8650 H          1 L1        0.334700
     41 H16         13.6430    -2.1220     3.2360 H          1 L1        0.330700
     42 H17         11.8060    -1.5720     1.6900 H          1 L1        0.083700
     43 H18         11.4780    -3.2830     1.9790 H          1 L1        0.083700
     44 H19         10.9880    -2.5220     0.4540 H          1 L1        0.083700
     45 H20         14.9340    -0.7830    -0.5720 H          1 L1        0.162000
     46 H21         15.8580     1.1780     0.0150 H          1 L1        0.143000
     47 H22         15.3340    -2.4330     3.0260 H          1 L1        0.330700
@<TRIPOS>BOND
     1     1     2 1   
     2     1    26 1   
     3     1    27 1   
     4     1    28 1   
     5     2     3 1   
     6     3     4 ar  
     7     3    25 ar  
     8     4     5 ar  
     9     4    29 1   
    10     5     6 ar  
    11     5    30 1   
    12     6     7 ar  
    13     6    31 1   
    14     7     8 1   
    15     7    25 ar  
    16     8     9 ar  
    17     8    24 ar  
    18     9    10 ar  
    19     9    32 1   
    20    10    11 ar  
    21    10    33 1   
    22    11    12 ar  
    23    11    34 1   
    24    12    13 1   
    25    12    24 ar  
    26    13    14 1   
    27    13    17 1   
    28    13    22 1   
    29    14    15 1   
    30    14    16 1   
    31    14    35 1   
    32    15    16 1   
    33    15    36 1   
    34    15    37 1   
    35    16    38 1   
    36    16    39 1   
    37    17    18 2   
    38    17    40 1   
    39    18    19 1   
    40    18    20 1   
    41    19    41 1   
    42    19    47 1   
    43    20    21 1   
    44    20    22 am  
    45    21    42 1   
    46    21    43 1   
    47    21    44 1   
    48    22    23 2   
    49    24    45 1   
    50    25    46 1   
@<TRIPOS>SUBSTRUCTURE
     1 L1          1 TEMP              0 ****  ****    0 ROOT
