@<TRIPOS>MOLECULE
L1
46 49 1 0 1
SMALL
USER_CHARGES
@<TRIPOS>CRYSIN
   74.8048    74.8048    74.8048   109.4712   109.4712   109.4712  1  1
@<TRIPOS>ATOM
       1 C1          19.0412    -1.7307   -29.2356 c3            1 L1         0.056300
       2 N1          19.7765    -1.9949   -27.9215 n             1 L1        -0.401400
       3 C2          19.2219    -2.3820   -26.7206 cz            1 L1         0.434600
       4 N2          17.9718    -2.7698   -26.5966 nv            1 L1        -0.467200
       5 N3          20.0812    -2.5129   -25.7624 nu            1 L1        -0.366200
       6 C3          21.4382    -2.1345   -26.1544 c3            1 L1         0.122300
       7 C4          22.3805    -3.4054   -25.8968 ca            1 L1        -0.156300
       8 C5          22.0739    -4.2718   -24.8331 ca            1 L1        -0.111000
       9 C6          22.8286    -5.5043   -24.6487 ca            1 L1        -0.117000
      10 C7          23.7727    -5.7925   -25.5806 ca            1 L1        -0.089000
      11 C8          24.1993    -4.8905   -26.5849 ca            1 L1        -0.117000
      12 C9          23.4801    -3.6694   -26.7517 ca            1 L1        -0.111000
      13 C10         21.9499    -0.8489   -25.3836 ca            1 L1        -0.135300
      14 C11         22.9744    -0.9088   -24.4224 ca            1 L1        -0.079000
      15 C12         23.4589     0.3013   -23.9309 ca            1 L1        -0.118000
      16 C13         22.8612     1.5469   -24.2634 ca            1 L1        -0.080000
      17 C14         21.7531     1.5932   -25.1187 cp            1 L1        -0.026000
      18 C15         21.1751     2.9143   -25.5985 cp            1 L1        -0.177300
      19 C16         21.9889     3.9369   -26.1434 ca            1 L1         0.436200
      20 N4          21.4865     5.1442   -26.5523 nb            1 L1        -0.647000
      21 C17         20.1670     5.3261   -26.4447 ca            1 L1         0.452200
      22 C18         19.2615     4.4033   -25.8956 ca            1 L1        -0.128300
      23 C20         19.7837     3.1736   -25.4561 ca            1 L1        -0.053000
      24 C21         21.3481     0.4045   -25.6944 ca            1 L1        -0.101000
      25 C22         21.1564    -1.8747   -27.7101 c             1 L1         0.703500
      26 O1          21.9799    -1.4572   -28.4750 o             1 L1        -0.465500
      27 H1          19.4823    -0.8215   -29.6623 h1            1 L1         0.084367
      28 H2          19.1783    -2.6134   -29.8724 h1            1 L1         0.084367
      29 H3          17.9611    -1.5601   -29.1470 h1            1 L1         0.084367
      30 H4          17.6170    -3.1181   -25.7152 hn            1 L1         0.332200
      31 H5          19.8133    -2.8902   -24.8624 hn            1 L1         0.333700
      32 H6          21.2259    -4.1505   -24.1656 ha            1 L1         0.143500
      33 H8          24.2445    -6.7638   -25.4650 ha            1 L1         0.159000
      34 H9          25.0516    -5.2088   -27.1778 ha            1 L1         0.157500
      35 H10         23.7793    -2.9395   -27.4981 ha            1 L1         0.143500
      36 H11         23.4191    -1.8524   -24.1202 ha            1 L1         0.158000
      37 H12         24.3926     0.3229   -23.3767 ha            1 L1         0.160000
      38 H13         23.2367     2.4904   -23.8784 ha            1 L1         0.158000
      39 H14         23.0394     3.7050   -26.3127 h4            1 L1         0.038100
      40 H15         19.8314     6.2948   -26.8121 h4            1 L1         0.051100
      41 H16         19.1342     2.4121   -25.0346 ha            1 L1         0.143000
      42 H17         20.5089     0.4280   -26.3833 ha            1 L1         0.129000
      43 H18         17.2148    -2.1748   -26.9081 hn            1 L1         0.332200
      44 C19         17.8743     4.6277   -25.9652 cg            1 L1         0.221800
      45 N5          16.7528     4.7726   -26.1341 n1            1 L1        -0.330800
      46 H7          22.6153    -6.1851   -23.8300 ha            1 L1         0.157500
@<TRIPOS>BOND
       1       25       26 1
       2       44       45 1
       3       22       44 1
       4       22       23 1
       5       21       22 1
       6       20       21 1
       7       19       20 1
       8       18       19 1
       9       18       23 1
      10       17       18 1
      11       17       24 1
      12       16       17 1
      13       15       16 1
      14       14       15 1
      15       13       14 1
      16       13       24 1
      17       11       12 1
      18       10       11 1
      19        9       10 1
      20        8        9 1
      21        7        8 1
      22        7       12 1
      23        6        7 1
      24        6       13 1
      25        6       25 1
      26        5        6 1
      27        3        4 1
      28        3        5 1
      29        2        3 1
      30        2       25 1
      31        1        2 1
      32       24       42 1
      33       23       41 1
      34       21       40 1
      35       19       39 1
      36       16       38 1
      37       15       37 1
      38       14       36 1
      39       12       35 1
      40       11       34 1
      41       10       33 1
      42        9       46 1
      43        8       32 1
      44        5       31 1
      45        4       30 1
      46        4       43 1
      47        1       27 1
      48        1       28 1
      49        1       29 1
@<TRIPOS>SUBSTRUCTURE
       1 L1              1 RESIDUE    0 **** ROOT      0
