@<TRIPOS>MOLECULE
R1
45 48 1 0 1
SMALL
USER_CHARGES
@<TRIPOS>CRYSIN
   74.6251    74.6251    74.6251   109.4712   109.4712   109.4712  1  1
@<TRIPOS>ATOM
       1 C1          19.0412    -1.7307   -29.2356 c3            1 R1         0.056300
       2 N1          19.7765    -1.9949   -27.9215 n             1 R1        -0.400400
       3 C2          19.2219    -2.3820   -26.7206 cz            1 R1         0.441600
       4 N2          17.9718    -2.7698   -26.5966 nv            1 R1        -0.465200
       5 N3          20.0812    -2.5129   -25.7624 nu            1 R1        -0.369200
       6 C3          21.4382    -2.1345   -26.1544 c3            1 R1         0.129300
       7 C4          22.3805    -3.4054   -25.8968 ca            1 R1        -0.258600
       8 C8          22.0739    -4.2718   -24.8331 ca            1 R1         0.420200
       9 N4          22.8286    -5.5043   -24.6487 nb            1 R1        -0.649000
      10 C7          23.7727    -5.7925   -25.5806 ca            1 R1         0.430200
      11 C6          24.1993    -4.8905   -26.5849 ca            1 R1        -0.230300
      12 C5          23.4801    -3.6694   -26.7517 ca            1 R1        -0.060000
      13 C9          21.9499    -0.8489   -25.3836 ca            1 R1        -0.155300
      14 C10         22.9744    -0.9088   -24.4224 ca            1 R1        -0.105000
      15 C11         23.4589     0.3013   -23.9309 ca            1 R1        -0.116000
      16 C12         22.8612     1.5469   -24.2634 ca            1 R1        -0.083000
      17 C13         21.7531     1.5932   -25.1187 cp            1 R1        -0.012000
      18 C14         21.1751     2.9143   -25.5985 cp            1 R1        -0.056000
      19 C15         21.9889     3.9369   -26.1434 ca            1 R1        -0.108000
      20 C16         21.4865     5.1442   -26.5523 ca            1 R1        -0.112000
      21 C17         20.1670     5.3261   -26.4447 ca            1 R1        -0.102000
      22 C18         19.2615     4.4033   -25.8956 ca            1 R1         0.017400
      23 C19         19.7837     3.1736   -25.4561 ca            1 R1        -0.118000
      24 C20         21.3481     0.4045   -25.6944 ca            1 R1        -0.103000
      25 C21         21.1564    -1.8747   -27.7101 c             1 R1         0.705500
      26 O1          21.9799    -1.4572   -28.4750 o             1 R1        -0.473500
      27 H1          19.4823    -0.8215   -29.6623 h1            1 R1         0.085033
      28 H2          19.1783    -2.6134   -29.8724 h1            1 R1         0.085033
      29 H3          17.9611    -1.5601   -29.1470 h1            1 R1         0.085033
      30 H4          17.6170    -3.1181   -25.7152 hn            1 R1         0.332700
      31 H5          19.8133    -2.8902   -24.8624 hn            1 R1         0.335700
      32 H9          21.2259    -4.1505   -24.1656 h4            1 R1         0.018100
      33 H8          24.2445    -6.7638   -25.4650 h4            1 R1         0.048100
      34 H7          25.0516    -5.2088   -27.1778 ha            1 R1         0.169000
      35 H6          23.7793    -2.9395   -27.4981 ha            1 R1         0.167000
      36 H10         23.4191    -1.8524   -24.1202 ha            1 R1         0.145000
      37 H11         24.3926     0.3229   -23.3767 ha            1 R1         0.158000
      38 H12         23.2367     2.4904   -23.8784 ha            1 R1         0.160000
      39 H13         23.0394     3.7050   -26.3127 ha            1 R1         0.143000
      40 H15         19.8314     6.2948   -26.8121 ha            1 R1         0.161000
      41 H16         19.1342     2.4121   -25.0346 ha            1 R1         0.135000
      42 H17         20.5089     0.4280   -26.3833 ha            1 R1         0.143000
      43 H18         17.2148    -2.1748   -26.9081 hn            1 R1         0.332700
      44 Cl1         17.8307     4.6176   -26.3317 cl            1 R1        -0.078400
      45 H14         22.2680     6.2961   -25.9588 ha            1 R1         0.152000
@<TRIPOS>BOND
       1       25       26 1
       2       22       44 1
       3       22       23 1
       4       21       22 1
       5       20       21 1
       6       19       20 1
       7       18       19 1
       8       18       23 1
       9       17       18 1
      10       17       24 1
      11       16       17 1
      12       15       16 1
      13       14       15 1
      14       13       14 1
      15       13       24 1
      16        9        8 1
      17       10        9 1
      18       11       10 1
      19       12       11 1
      20        7       12 1
      21        7        8 1
      22        6        7 1
      23        6       13 1
      24        6       25 1
      25        5        6 1
      26        3        4 1
      27        3        5 1
      28        2        3 1
      29        2       25 1
      30        1        2 1
      31       24       42 1
      32       23       41 1
      33       21       40 1
      34       20       45 1
      35       19       39 1
      36       16       38 1
      37       15       37 1
      38       14       36 1
      39        8       32 1
      40       10       33 1
      41       11       34 1
      42       12       35 1
      43        5       31 1
      44        4       30 1
      45        4       43 1
      46        1       27 1
      47        1       28 1
      48        1       29 1
@<TRIPOS>SUBSTRUCTURE
       1 R1              1 RESIDUE    0 **** ROOT      0
