@<TRIPOS>MOLECULE
L1
45 48 1 0 1
SMALL
USER_CHARGES
@<TRIPOS>CRYSIN
   74.6401    74.6401    74.6401   109.4712   109.4712   109.4712  1  1
@<TRIPOS>ATOM
       1 C2          18.3808     4.1590   -27.3151 ca            1 L1        -0.182600
       2 C3          19.1602     5.3055   -27.6577 ca            1 L1         0.414200
       3 N1          20.5171     5.2080   -27.9449 nb            1 L1        -0.647000
       4 C4          21.1514     4.0251   -27.8542 ca            1 L1         0.412200
       5 C5          20.4711     2.8406   -27.3721 cp            1 L1        -0.184300
       6 C6          21.1992     1.4592   -27.3048 cp            1 L1         0.001000
       7 C7          22.5929     1.3971   -27.0869 ca            1 L1        -0.090000
       8 C8          23.2590     0.1970   -26.9248 ca            1 L1        -0.113000
       9 C9          22.5830    -1.0402   -27.0979 ca            1 L1        -0.126000
      10 C10         21.1976    -0.9916   -27.5237 ca            1 L1        -0.140300
      11 C11         20.3694    -2.2648   -27.7934 c3            1 L1         0.109000
      12 C12         21.0056    -3.6281   -27.3957 cx            1 L1        -0.182700
      13 C13         21.0109    -4.2163   -26.0043 cx            1 L1        -0.094900
      14 C14         20.1703    -4.8949   -27.0089 cx            1 L1        -0.094900
      15 N2          19.0193    -2.2132   -27.1129 nu            1 L1        -0.392100
      16 C15         17.9572    -1.9850   -27.8945 cz            1 L1         0.467400
      17 N3          16.8050    -2.5439   -27.5844 nv            1 L1        -0.472200
      18 N4          18.4231    -2.0127   -29.1959 n             1 L1        -0.411300
      19 C16         17.7036    -2.3354   -30.4992 c3            1 L1         0.058300
      20 C17         19.8251    -2.1622   -29.1995 c             1 L1         0.705500
      21 O1          20.4841    -2.1298   -30.2505 o             1 L1        -0.476500
      22 C18         20.5428     0.2520   -27.5529 ca            1 L1        -0.110000
      23 C19         19.0527     2.9500   -27.1316 ca            1 L1        -0.081000
      24 H4          18.7605     6.3146   -27.7454 h4            1 L1         0.037100
      25 H5          22.2177     4.0253   -28.0753 h4            1 L1         0.027100
      26 H6          23.2430     2.2658   -27.0413 ha            1 L1         0.161000
      27 H7          24.2757     0.3234   -26.5647 ha            1 L1         0.155000
      28 H8          23.0823    -1.9987   -26.9916 ha            1 L1         0.124000
      29 H9          21.7854    -3.8701   -28.1133 hc            1 L1         0.098700
      30 H10         21.9594    -4.6958   -25.7763 hc            1 L1         0.093950
      31 H11         20.4633    -3.7215   -25.2062 hc            1 L1         0.093950
      32 H12         19.1037    -4.8572   -26.8025 hc            1 L1         0.093950
      33 H13         20.4800    -5.8692   -27.3781 hc            1 L1         0.093950
      34 H14         18.9467    -2.5856   -26.1747 hn            1 L1         0.339700
      35 H15         15.9674    -2.5133   -28.1516 hn            1 L1         0.331700
      36 H16         16.6156    -2.2930   -30.3657 h1            1 L1         0.083700
      37 H17         17.9914    -1.5471   -31.2058 h1            1 L1         0.083700
      38 H18         18.0470    -3.2797   -30.9394 h1            1 L1         0.083700
      39 H19         19.5080     0.2513   -27.8824 ha            1 L1         0.161000
      40 H20         18.5397     2.0967   -26.6979 ha            1 L1         0.135000
      41 H21         16.5019    -2.7301   -26.6370 hn            1 L1         0.331700
      42 C1          16.9292     4.2753   -26.8470 c3            1 L1        -0.055800
      43 H1          16.3725     3.6319   -27.5394 hc            1 L1         0.054367
      44 H2          16.8795     3.8184   -25.8509 hc            1 L1         0.054367
      45 H3          16.5631     5.3053   -26.7545 hc            1 L1         0.054367
@<TRIPOS>BOND
       1       20       21 1
       2       18       19 1
       3       18       20 1
       4       16       17 1
       5       16       18 1
       6       15       16 1
       7       13       14 1
       8       12       13 1
       9       12       14 1
      10       11       12 1
      11       11       15 1
      12       11       20 1
      13       10       11 1
      14       10       22 1
      15        9       10 1
      16        8        9 1
      17        7        8 1
      18        6        7 1
      19        6       22 1
      20        5        6 1
      21        5       23 1
      22        4        5 1
      23        3        4 1
      24        2        3 1
      25        1        2 1
      26        1       23 1
      27       42        1 1
      28       23       40 1
      29       22       39 1
      30       19       36 1
      31       19       37 1
      32       19       38 1
      33       17       35 1
      34       17       41 1
      35       15       34 1
      36       14       32 1
      37       14       33 1
      38       13       30 1
      39       13       31 1
      40       12       29 1
      41        9       28 1
      42        8       27 1
      43        7       26 1
      44        4       25 1
      45        2       24 1
      46       42       43 1
      47       42       44 1
      48       42       45 1
@<TRIPOS>SUBSTRUCTURE
       1 L1              1 RESIDUE    0 **** ROOT      0
