@<TRIPOS>MOLECULE
R1
43 46 1 0 1
SMALL
USER_CHARGES
@<TRIPOS>CRYSIN
   74.6043    74.6043    74.6043   109.4712   109.4712   109.4712  1  1
@<TRIPOS>ATOM
       1 C11         18.3808     4.1590   -27.3151 ca            1 R1         0.026400
       2 C12         19.1602     5.3055   -27.6577 ca            1 R1        -0.102000
       3 C13         20.5171     5.2080   -27.9449 ca            1 R1         0.026400
       4 C14         21.1514     4.0251   -27.8542 ca            1 R1        -0.113000
       5 C9          20.4711     2.8406   -27.3721 cp            1 R1        -0.047000
       6 C8          21.1992     1.4592   -27.3048 cp            1 R1        -0.011000
       7 C7          22.5929     1.3971   -27.0869 ca            1 R1        -0.086000
       8 C6          23.2590     0.1970   -26.9248 ca            1 R1        -0.114000
       9 C5          22.5830    -1.0402   -27.0979 ca            1 R1        -0.123000
      10 C4          21.1976    -0.9916   -27.5237 ca            1 R1        -0.141300
      11 C3          20.3694    -2.2648   -27.7934 c3            1 R1         0.108000
      12 C16         21.0056    -3.6281   -27.3957 cx            1 R1        -0.181700
      13 C17         21.0109    -4.2163   -26.0043 cx            1 R1        -0.094900
      14 C18         20.1703    -4.8949   -27.0089 cx            1 R1        -0.094900
      15 N3          19.0193    -2.2132   -27.1129 nu            1 R1        -0.376200
      16 C2          17.9572    -1.9850   -27.8945 cz            1 R1         0.444600
      17 N2          16.8050    -2.5439   -27.5844 nv            1 R1        -0.472200
      18 N1          18.4231    -2.0127   -29.1959 n             1 R1        -0.403400
      19 C1          17.7036    -2.3354   -30.4992 c3            1 R1         0.057300
      20 C19         19.8251    -2.1622   -29.1995 c             1 R1         0.704500
      21 O1          20.4841    -2.1298   -30.2505 o             1 R1        -0.473500
      22 C15         20.5428     0.2520   -27.5529 ca            1 R1        -0.106000
      23 C10         19.0527     2.9500   -27.1316 ca            1 R1        -0.113000
      24 H10         18.7605     6.3146   -27.7454 ha            1 R1         0.174000
      25 H11         22.2177     4.0253   -28.0753 ha            1 R1         0.150000
      26 H8          23.2430     2.2658   -27.0413 ha            1 R1         0.162000
      27 H7          24.2757     0.3234   -26.5647 ha            1 R1         0.156000
      28 H6          23.0823    -1.9987   -26.9916 ha            1 R1         0.125000
      29 H13         21.7854    -3.8701   -28.1133 hc            1 R1         0.099700
      30 H14         21.9594    -4.6958   -25.7763 hc            1 R1         0.093950
      31 H15         20.4633    -3.7215   -25.2062 hc            1 R1         0.093950
      32 H16         19.1037    -4.8572   -26.8025 hc            1 R1         0.093950
      33 H17         20.4800    -5.8692   -27.3781 hc            1 R1         0.093950
      34 H5          18.9467    -2.5856   -26.1747 hn            1 R1         0.338700
      35 H4          15.9674    -2.5133   -28.1516 hn            1 R1         0.331700
      36 H3          16.6156    -2.2930   -30.3657 h1            1 R1         0.084033
      37 H1          17.9914    -1.5471   -31.2058 h1            1 R1         0.084033
      38 H2          18.0470    -3.2797   -30.9394 h1            1 R1         0.084033
      39 H12         19.5080     0.2513   -27.8824 ha            1 R1         0.163000
      40 H9          18.5397     2.0967   -26.6979 ha            1 R1         0.150000
      41 H18         16.5019    -2.7301   -26.6370 hn            1 R1         0.331700
      42 Cl1         16.9312     4.4094   -27.0255 cl            1 R1        -0.060900
      43 Cl2         21.2528     6.0805   -29.6827 cl            1 R1        -0.060900
@<TRIPOS>BOND
       1       20       21 1
       2       13       14 1
       3       12       13 1
       4       12       14 1
       5        3       43 1
       6        3        4 1
       7        2        3 1
       8        1       42 1
       9        1        2 1
      10       23        1 1
      11        5       23 1
      12        5        4 1
      13        6        5 1
      14        6       22 1
      15        7        6 1
      16        8        7 1
      17        9        8 1
      18       10        9 1
      19       10       22 1
      20       11       10 1
      21       11       12 1
      22       11       20 1
      23       15       11 1
      24       16       17 1
      25       16       15 1
      26       18       16 1
      27       18       20 1
      28       19       18 1
      29       14       32 1
      30       14       33 1
      31       13       30 1
      32       13       31 1
      33       12       29 1
      34       22       39 1
      35        4       25 1
      36        2       24 1
      37       23       40 1
      38        7       26 1
      39        8       27 1
      40        9       28 1
      41       15       34 1
      42       17       35 1
      43       17       41 1
      44       19       37 1
      45       19       38 1
      46       19       36 1
@<TRIPOS>SUBSTRUCTURE
       1 R1              1 RESIDUE    0 **** ROOT      0
