@<TRIPOS>MOLECULE
R1
45 47 1 0 1
SMALL
USER_CHARGES
@<TRIPOS>CRYSIN
   74.7194    74.7194    74.7194   109.4712   109.4712   109.4712  1  1
@<TRIPOS>ATOM
       1 C18         18.0885    -0.8810   -30.5658 c3            1 R1         0.056300
       2 N3          18.8932    -1.3062   -29.4365 n             1 R1        -0.409300
       3 C17         18.3626    -1.6267   -28.1921 cz            1 R1         0.457400
       4 N2          17.1606    -2.1553   -28.0349 nv            1 R1        -0.467200
       5 N1          19.2973    -1.7461   -27.2722 nu            1 R1        -0.378100
       6 C4          20.6837    -1.4325   -27.8181 c3            1 R1         0.054000
       7 C5          21.3697    -0.2457   -27.3109 ca            1 R1        -0.147300
       8 C6          22.7944    -0.1424   -27.0857 ca            1 R1        -0.125000
       9 C7          23.3851     1.0736   -26.7665 ca            1 R1        -0.114000
      10 C8          22.6310     2.2631   -26.6907 ca            1 R1        -0.088000
      11 C9          21.2033     2.2420   -26.8835 cp            1 R1        -0.008000
      12 C10         20.2379     3.4650   -27.0354 cp            1 R1        -0.058000
      13 C11         20.6996     4.6962   -27.5315 ca            1 R1        -0.108000
      14 C12         19.9604     5.7762   -27.6557 ca            1 R1        -0.113000
      15 C13         18.6949     5.6652   -27.1859 ca            1 R1        -0.102000
      16 C14         18.1589     4.5035   -26.6074 ca            1 R1         0.018400
      17 C15         18.9499     3.3788   -26.4518 ca            1 R1        -0.115000
      18 C16         20.5649     0.9833   -27.0792 ca            1 R1        -0.103000
      19 C19         20.2961    -1.1528   -29.3479 c             1 R1         0.708500
      20 O1          21.0474    -0.6864   -30.2285 o             1 R1        -0.473500
      21 H19         17.4172    -0.0769   -30.2398 h1            1 R1         0.084033
      22 H20         18.6612    -0.4493   -31.3959 h1            1 R1         0.084033
      23 H18         17.4797    -1.7094   -30.9487 h1            1 R1         0.084033
      24 H17         16.3446    -1.8560   -28.5532 hn            1 R1         0.331200
      25 H16         19.1737    -2.1866   -26.3695 hn            1 R1         0.329700
      26 H8          23.4333    -1.0181   -27.1511 ha            1 R1         0.134000
      27 H9          24.4639     1.1949   -26.7383 ha            1 R1         0.156000
      28 H10         23.1250     3.2228   -26.5711 ha            1 R1         0.160000
      29 H11         21.6720     4.7554   -28.0182 ha            1 R1         0.143000
      30 H13         18.0185     6.5147   -27.2688 ha            1 R1         0.161000
      31 H14         18.6140     2.4269   -26.0512 ha            1 R1         0.137000
      32 H15         19.5311     1.0314   -27.4087 ha            1 R1         0.151000
      33 H21         16.9375    -2.5653   -27.1370 hn            1 R1         0.331200
      34 C1          21.1501    -4.0795   -28.7046 c3            1 R1        -0.109100
      35 C2          21.7754    -2.7043   -28.4900 c3            1 R1        -0.048700
      36 C3          22.8580    -2.4186   -29.5805 c3            1 R1        -0.109100
      37 Cl1         16.7630     5.0334   -25.9542 cl            1 R1        -0.077400
      38 H1          21.7015    -4.6239   -29.4812 hc            1 R1         0.057200
      39 H2          20.9591    -4.6351   -27.7783 hc            1 R1         0.057200
      40 H3          20.1628    -3.9876   -29.1740 hc            1 R1         0.057200
      41 H4          22.3950    -2.7227   -27.5849 hc            1 R1         0.076700
      42 H5          23.6204    -3.1978   -29.7034 hc            1 R1         0.057200
      43 H6          22.3360    -2.4490   -30.5450 hc            1 R1         0.057200
      44 H7          23.4346    -1.4869   -29.5270 hc            1 R1         0.057200
      45 H12         20.6512     6.9537   -27.9390 ha            1 R1         0.152000
@<TRIPOS>BOND
       1       19       20 1
       2        2        1 1
       3        2       19 1
       4        3        4 1
       5        3        2 1
       6        5        3 1
       7       16       37 1
       8       16       17 1
       9       15       16 1
      10       14       15 1
      11       13       14 1
      12       12       13 1
      13       12       17 1
      14       11       12 1
      15       11       18 1
      16       10       11 1
      17        9       10 1
      18        8        9 1
      19        7        8 1
      20        7       18 1
      21        6        7 1
      22        6        5 1
      23        6       19 1
      24       35       36 1
      25       35        6 1
      26       34       35 1
      27        1       23 1
      28        1       21 1
      29        1       22 1
      30        4       24 1
      31        4       33 1
      32        5       25 1
      33       18       32 1
      34       17       31 1
      35       15       30 1
      36       14       45 1
      37       13       29 1
      38       10       28 1
      39        9       27 1
      40        8       26 1
      41       36       42 1
      42       36       43 1
      43       36       44 1
      44       35       41 1
      45       34       38 1
      46       34       39 1
      47       34       40 1
@<TRIPOS>SUBSTRUCTURE
       1 R1              1 RESIDUE    0 **** ROOT      0
