@<TRIPOS>MOLECULE
R1
49 52 1 0 1
SMALL
USER_CHARGES
@<TRIPOS>CRYSIN
   74.6696    74.6696    74.6696   109.4712   109.4712   109.4712  1  1
@<TRIPOS>ATOM
       1 C1          17.8798    -2.0707   -29.3738 c3            1 R1         0.057300
       2 N1          18.6717    -2.1612   -28.1922 n             1 R1        -0.405400
       3 C2          18.1476    -2.3064   -26.8829 cz            1 R1         0.433600
       4 N2          16.8583    -2.2181   -26.5685 nv            1 R1        -0.469200
       5 N3          19.1984    -2.2693   -26.0239 nu            1 R1        -0.361200
       6 C3          20.4881    -1.9722   -26.6071 c3            1 R1         0.064000
       7 C4          21.1821    -0.7052   -26.0109 ca            1 R1        -0.132300
       8 C5          22.2251    -0.8079   -25.0855 ca            1 R1        -0.092000
       9 C6          22.8575     0.3813   -24.6610 ca            1 R1        -0.119000
      10 C7          22.2752     1.6555   -24.8902 ca            1 R1        -0.081000
      11 C8          21.1552     1.7575   -25.7148 cp            1 R1        -0.017000
      12 C9          20.5233     3.0624   -25.9924 cp            1 R1        -0.053000
      13 C10         21.3478     3.9617   -26.7198 ca            1 R1        -0.109000
      14 C11         20.7974     5.0931   -27.2737 ca            1 R1        -0.112000
      15 C12         19.4389     5.3715   -27.1938 ca            1 R1        -0.105000
      16 C13         18.5961     4.5951   -26.3216 ca            1 R1         0.015400
      17 Cl1         16.8372     4.9400   -26.2022 cl            1 R1        -0.081400
      18 C14         19.1689     3.3778   -25.8127 ca            1 R1        -0.122000
      19 C15         20.7277     0.6176   -26.4128 ca            1 R1        -0.106000
      20 C21         19.9929    -1.8359   -28.0496 c             1 R1         0.698500
      21 O1          20.6410    -1.4257   -28.9743 o             1 R1        -0.464500
      22 H2          17.1045    -2.8396   -29.4791 h1            1 R1         0.083033
      23 H3          17.3298    -1.1221   -29.4081 h1            1 R1         0.083033
      24 H1          18.5459    -2.0440   -30.2450 h1            1 R1         0.083033
      25 H4          16.1326    -2.1201   -27.2669 hn            1 R1         0.331200
      26 H5          19.0476    -2.3163   -25.0243 hn            1 R1         0.339700
      27 H6          22.6682    -1.7780   -24.8808 ha            1 R1         0.147000
      28 H7          23.7218     0.3642   -24.0037 ha            1 R1         0.157000
      29 H8          22.7506     2.4934   -24.3889 ha            1 R1         0.159000
      30 H9          22.3815     3.6534   -26.8460 ha            1 R1         0.145000
      31 H10         21.2958     5.7333   -27.9956 ha            1 R1         0.153000
      32 H11         18.9403     6.1238   -27.7979 ha            1 R1         0.161000
      33 H12         18.5678     2.5890   -25.3699 ha            1 R1         0.136000
      34 H13         19.9622     0.7142   -27.1770 ha            1 R1         0.125000
      35 H23         16.5471    -2.0332   -25.6235 hn            1 R1         0.331200
      36 C16         20.8465    -3.5093   -25.6346 c3            1 R1        -0.078700
      37 C17         20.7636    -3.7331   -24.1615 c3            1 R1        -0.092400
      38 C18         20.5217    -5.1809   -23.9334 c3            1 R1        -0.088900
      39 C19         20.5040    -5.9163   -25.2767 c3            1 R1        -0.088900
      40 C20         20.2511    -4.7999   -26.2151 c3            1 R1        -0.092400
      41 H14         21.9063    -3.5838   -25.9079 hc            1 R1         0.102700
      42 H15         21.7072    -3.3863   -23.7225 hc            1 R1         0.063450
      43 H16         19.8761    -3.2676   -23.7153 hc            1 R1         0.063450
      44 H17         21.3247    -5.5887   -23.3070 hc            1 R1         0.053450
      45 H18         19.5812    -5.4327   -23.4280 hc            1 R1         0.053450
      46 H19         21.5181    -6.2071   -25.5775 hc            1 R1         0.053450
      47 H20         19.7703    -6.7318   -25.2720 hc            1 R1         0.053450
      48 H21         19.1612    -4.6807   -26.2512 hc            1 R1         0.063450
      49 H22         20.6506    -5.1007   -27.1915 hc            1 R1         0.063450
@<TRIPOS>BOND
       1       20       21 1
       2       39       40 1
       3       38       39 1
       4       37       38 1
       5       36       37 1
       6       36       40 1
       7       16       17 1
       8       16       18 1
       9       15       16 1
      10       14       15 1
      11       13       14 1
      12       12       13 1
      13       12       18 1
      14       11       12 1
      15       11       19 1
      16       10       11 1
      17        9       10 1
      18        8        9 1
      19        7        8 1
      20        7       19 1
      21        6        7 1
      22        6       36 1
      23        6       20 1
      24        5        6 1
      25        3        4 1
      26        3        5 1
      27        2        3 1
      28        2       20 1
      29        1        2 1
      30       40       48 1
      31       40       49 1
      32       39       46 1
      33       39       47 1
      34       38       44 1
      35       38       45 1
      36       37       42 1
      37       37       43 1
      38       36       41 1
      39       19       34 1
      40       18       33 1
      41       15       32 1
      42       14       31 1
      43       13       30 1
      44       10       29 1
      45        9       28 1
      46        8       27 1
      47        5       26 1
      48        4       25 1
      49        4       35 1
      50        1       24 1
      51        1       22 1
      52        1       23 1
@<TRIPOS>SUBSTRUCTURE
       1 R1              1 RESIDUE    0 **** ROOT      0
