@<TRIPOS>MOLECULE
R1
44 47 1 0 1
SMALL
USER_CHARGES
@<TRIPOS>CRYSIN
   74.7945    74.7945    74.7945   109.4712   109.4712   109.4712  1  1
@<TRIPOS>ATOM
       1 C1          18.0885    -0.8810   -30.5658 c3            1 R1         0.057300
       2 N1          18.8932    -1.3062   -29.4365 n             1 R1        -0.408400
       3 C2          18.3626    -1.6267   -28.1921 cz            1 R1         0.444600
       4 N2          17.1606    -2.1553   -28.0349 nv            1 R1        -0.474200
       5 N3          19.2973    -1.7461   -27.2722 nu            1 R1        -0.382200
       6 C3          20.6837    -1.4325   -27.8181 c3            1 R1         0.110000
       7 C4          21.3697    -0.2457   -27.3109 ca            1 R1        -0.144300
       8 C5          22.7944    -0.1424   -27.0857 ca            1 R1        -0.081000
       9 C6          23.3851     1.0736   -26.7665 ca            1 R1        -0.118000
      10 C7          22.6310     2.2631   -26.6907 ca            1 R1        -0.079000
      11 C8          21.2033     2.2420   -26.8835 cp            1 R1        -0.018000
      12 C9          20.2379     3.4650   -27.0354 cp            1 R1        -0.063000
      13 C10         20.6996     4.6962   -27.5315 ca            1 R1        -0.088000
      14 C11         19.9604     5.7762   -27.6557 ca            1 R1        -0.124000
      15 C12         18.6949     5.6652   -27.1859 ca            1 R1        -0.072000
      16 C13         18.1589     4.5035   -26.6074 ca            1 R1        -0.012000
      17 C15         18.9499     3.3788   -26.4518 ca            1 R1        -0.090000
      18 C16         20.5649     0.9833   -27.0792 ca            1 R1        -0.112000
      19 C17         21.3428    -2.7648   -27.3820 cx            1 R1        -0.176700
      20 C18         21.1157    -4.0668   -28.0477 cx            1 R1        -0.107400
      21 C19         22.4295    -3.4065   -28.2555 cx            1 R1        -0.107400
      22 C20         20.2961    -1.1528   -29.3479 c             1 R1         0.701500
      23 O1          21.0474    -0.6864   -30.2285 o             1 R1        -0.468500
      24 H1          17.4172    -0.0769   -30.2398 h1            1 R1         0.083367
      25 H2          18.6612    -0.4493   -31.3959 h1            1 R1         0.083367
      26 H3          17.4797    -1.7094   -30.9487 h1            1 R1         0.083367
      27 H4          16.3446    -1.8560   -28.5532 hn            1 R1         0.331700
      28 H5          19.1737    -2.1866   -26.3695 hn            1 R1         0.344700
      29 H6          23.4333    -1.0181   -27.1511 ha            1 R1         0.152000
      30 H7          24.4639     1.1949   -26.7383 ha            1 R1         0.159000
      31 H8          23.1250     3.2228   -26.5711 ha            1 R1         0.159000
      32 H9          21.6720     4.7554   -28.0182 ha            1 R1         0.147000
      33 H11         18.0185     6.5147   -27.2688 ha            1 R1         0.160000
      34 H12         18.6140     2.4269   -26.0512 ha            1 R1         0.131000
      35 H13         19.5311     1.0314   -27.4087 ha            1 R1         0.124000
      36 H14         21.4204    -2.8000   -26.2983 hc            1 R1         0.110700
      37 H15         21.1680    -4.9020   -27.3540 hc            1 R1         0.093950
      38 H16         20.6242    -4.2878   -28.9917 hc            1 R1         0.093950
      39 H17         22.6405    -2.8795   -29.1825 hc            1 R1         0.093950
      40 H18         23.2670    -3.8895   -27.7586 hc            1 R1         0.093950
      41 H19         16.9375    -2.5653   -27.1370 hn            1 R1         0.331700
      42 C14         16.9689     5.1089   -26.3629 cg            1 R1         0.221800
      43 N4          15.9032     5.0634   -26.0259 n1            1 R1        -0.342800
      44 H10         20.9279     6.8099   -28.1086 ha            1 R1         0.156000
@<TRIPOS>BOND
       1       22       23 1
       2       20       21 1
       3       19       20 1
       4       19       21 1
       5       42       43 1
       6       16       42 1
       7       16       17 1
       8       15       16 1
       9       14       15 1
      10       13       14 1
      11       12       13 1
      12       12       17 1
      13       11       12 1
      14       11       18 1
      15       10       11 1
      16        9       10 1
      17        8        9 1
      18        7        8 1
      19        7       18 1
      20        6        7 1
      21        6       19 1
      22        6       22 1
      23        5        6 1
      24        3        4 1
      25        3        5 1
      26        2        3 1
      27        2       22 1
      28        1        2 1
      29       21       39 1
      30       21       40 1
      31       20       37 1
      32       20       38 1
      33       19       36 1
      34       18       35 1
      35       17       34 1
      36       15       33 1
      37       14       44 1
      38       13       32 1
      39       10       31 1
      40        9       30 1
      41        8       29 1
      42        5       28 1
      43        4       27 1
      44        4       41 1
      45        1       24 1
      46        1       25 1
      47        1       26 1
@<TRIPOS>SUBSTRUCTURE
       1 R1              1 RESIDUE    0 **** ROOT      0
