@<TRIPOS>MOLECULE
L1
   42    45     1     0     0
SMALL
No Charge or Current Charge


@<TRIPOS>ATOM
      1 C1          11.7740    -2.0620     1.1340 C.3        1 L1        0.058300
      2 N1          13.0790    -2.4520     0.5880 N.am       1 L1       -0.392400
      3 C2          14.2430    -2.5420     1.2540 C.cat      1 L1        0.443600
      4 N2          14.4170    -2.3500     2.5690 N.3        1 L1       -0.460200
      5 N3          15.2560    -2.8530     0.4410 N.3        1 L1       -0.334200
      6 C3          14.8080    -3.0850    -0.9330 C.3        1 L1        0.049700
      7 C4          15.4270    -2.0580    -1.9130 C.ar       1 L1       -0.140300
      8 C5          15.8990    -2.3990    -3.2010 C.ar       1 L1       -0.103000
      9 C6          16.3930    -1.4090    -4.0610 C.ar       1 L1       -0.117000
     10 C7          16.3360    -0.0550    -3.6930 C.ar       1 L1       -0.083000
     11 C8          15.8310     0.3420    -2.4380 C.ar       1 L1       -0.016000
     12 C9          15.6350     1.7780    -2.1100 C.ar       1 L1       -0.056000
     13 C10         15.3650     2.7170    -3.1350 C.ar       1 L1       -0.112000
     14 C11         15.0640     4.0610    -2.8390 C.ar       1 L1       -0.114000
     15 C12         15.0420     4.5010    -1.5060 C.ar       1 L1       -0.104000
     16 C13         15.3460     3.6010    -0.4750 C.ar       1 L1        0.017400
     17 Cl1         15.3400     4.1600     1.1570 Cl         1 L1       -0.074400
     18 C14         15.6380     2.2540    -0.7760 C.ar       1 L1       -0.118000
     19 C15         15.4350    -0.6820    -1.5450 C.ar       1 L1       -0.101000
     20 C16         14.8980    -4.5910    -1.1990 C.2        1 L1        0.209700
     21 N4          14.0680    -5.4770    -0.6140 N.2        1 L1       -0.648000
     22 C17         14.3910    -6.8150    -0.8480 C.2        1 L1        0.344200
     23 C18         15.5270    -6.9670    -1.5930 C.2        1 L1       -0.269400
     24 S1          16.2110    -5.4290    -2.0460 S.3        1 L1        0.163700
     25 C19         13.3120    -2.7370    -0.7910 C.2        1 L1        0.717500
     26 O1          12.4480    -2.6730    -1.6750 O.2        1 L1       -0.479500
     27 H1          10.9570    -2.5360     0.5850 H          1 L1        0.083700
     28 H2          11.6870    -2.3480     2.1850 H          1 L1        0.083700
     29 H3          11.6580    -0.9790     1.0520 H          1 L1        0.083700
     30 H4          15.3580    -2.4090     2.9620 H          1 L1        0.331700
     31 H5          16.2310    -2.9310     0.7290 H          1 L1        0.327700
     32 H6          15.8830    -3.4030    -3.5910 H          1 L1        0.156000
     33 H7          16.7790    -1.6900    -5.0300 H          1 L1        0.158000
     34 H8          16.6580     0.6820    -4.4120 H          1 L1        0.160000
     35 H9          15.3300     2.4000    -4.1670 H          1 L1        0.142000
     36 H10         14.8190     4.7550    -3.6300 H          1 L1        0.151000
     37 H11         14.7890     5.5260    -1.2730 H          1 L1        0.161000
     38 H12         15.8550     1.5830     0.0370 H          1 L1        0.140000
     39 H13         15.0400    -0.3910    -0.5830 H          1 L1        0.137000
     40 H14         13.7690    -7.5960    -0.4290 H          1 L1        0.066100
     41 H15         15.9900    -7.8910    -1.9000 H          1 L1        0.208000
     42 H16         13.6840    -2.0470     3.2070 H          1 L1        0.331700
@<TRIPOS>BOND
     1     1     2 1   
     2     1    27 1   
     3     1    28 1   
     4     1    29 1   
     5     2     3 2   
     6     2    25 am  
     7     3     4 1   
     8     3     5 1   
     9     4    30 1   
    10     4    42 1   
    11     5     6 1   
    12     5    31 1   
    13     6     7 1   
    14     6    20 1   
    15     6    25 1   
    16     7     8 ar  
    17     7    19 ar  
    18     8     9 ar  
    19     8    32 1   
    20     9    10 ar  
    21     9    33 1   
    22    10    11 ar  
    23    10    34 1   
    24    11    12 1   
    25    11    19 ar  
    26    12    13 ar  
    27    12    18 ar  
    28    13    14 ar  
    29    13    35 1   
    30    14    15 ar  
    31    14    36 1   
    32    15    16 ar  
    33    15    37 1   
    34    16    17 1   
    35    16    18 ar  
    36    18    38 1   
    37    19    39 1   
    38    20    21 2   
    39    20    24 1   
    40    21    22 1   
    41    22    23 2   
    42    22    40 1   
    43    23    24 1   
    44    23    41 1   
    45    25    26 2   
@<TRIPOS>SUBSTRUCTURE
     1 L1          1 TEMP              0 ****  ****    0 ROOT
