@<TRIPOS>MOLECULE
L1
   44    47     1     0     0
SMALL
No Charge or Current Charge


@<TRIPOS>ATOM
      1 C1          11.7110    -2.3110     1.2620 C.3        1 L1        0.057300
      2 N1          13.0350    -2.6400     0.7180 N.am       1 L1       -0.401400
      3 C2          14.2040    -2.6170     1.3750 C.cat      1 L1        0.442600
      4 N2          14.3770    -2.3590     2.6740 N.3        1 L1       -0.469200
      5 N3          15.2270    -2.8950     0.5700 N.3        1 L1       -0.371200
      6 C3          14.8060    -3.2170    -0.7950 C.3        1 L1        0.125300
      7 C4          15.1520    -4.6980    -1.0850 C.ar       1 L1       -0.154300
      8 C5          14.3050    -5.5760    -1.8010 C.ar       1 L1       -0.104500
      9 C6          14.6500    -6.9310    -1.9840 C.ar       1 L1       -0.117500
     10 C7          15.8630    -7.4260    -1.4790 C.ar       1 L1       -0.087000
     11 C8          16.7310    -6.5660    -0.7970 C.ar       1 L1       -0.117500
     12 C9          16.3650    -5.2250    -0.5910 C.ar       1 L1       -0.104500
     13 C10         15.3840    -2.1980    -1.7960 C.ar       1 L1       -0.138300
     14 C11         15.9240    -2.5920    -3.0420 C.ar       1 L1       -0.092000
     15 C12         16.3870    -1.6180    -3.9470 C.ar       1 L1       -0.119000
     16 C13         16.3040    -0.2490    -3.6280 C.ar       1 L1       -0.059000
     17 C14         15.8000     0.1820    -2.3820 C.ar       1 L1       -0.129500
     18 C15         15.7080     1.6220    -2.0290 C.ar       1 L1        0.325500
     19 C16         15.7060     2.0790    -0.6860 C.ar       1 L1        0.285900
     20 N4          15.5290     3.3730    -0.3400 N.ar       1 L1       -0.621000
     21 C17         15.3500     4.2350    -1.3630 C.ar       1 L1        0.295900
     22 C18         15.3870     3.8090    -2.7080 C.ar       1 L1        0.293900
     23 N5          15.5690     2.5100    -3.0470 N.ar       1 L1       -0.617000
     24 C19         15.3590    -0.8150    -1.4790 C.ar       1 L1       -0.101000
     25 C20         13.2850    -2.9800    -0.6450 C.2        1 L1        0.707500
     26 O1          12.4100    -3.0280    -1.5170 O.2        1 L1       -0.475500
     27 H1          10.9250    -2.8720     0.7570 H          1 L1        0.083700
     28 H2          11.6570    -2.5380     2.3260 H          1 L1        0.083700
     29 H3          11.5140    -1.2490     1.1210 H          1 L1        0.083700
     30 H4          15.3200    -2.3640     3.0630 H          1 L1        0.331700
     31 H5          16.2050    -2.8990     0.8580 H          1 L1        0.336700
     32 H6          13.3660    -5.2370    -2.2020 H          1 L1        0.140500
     33 H7          13.9800    -7.5970    -2.5060 H          1 L1        0.156000
     34 H8          16.1270    -8.4630    -1.5950 H          1 L1        0.158000
     35 H9          17.6700    -6.9320    -0.4070 H          1 L1        0.156000
     36 H10         17.0280    -4.6010    -0.0210 H          1 L1        0.140500
     37 H11         15.9840    -3.6330    -3.3300 H          1 L1        0.160000
     38 H12         16.7980    -1.9170    -4.9020 H          1 L1        0.160000
     39 H13         16.6290     0.4810    -4.3550 H          1 L1        0.170000
     40 H14         15.8530     1.3930     0.1280 H          1 L1        0.026100
     41 H15         15.1810     5.2710    -1.1090 H          1 L1        0.049100
     42 H16         15.2460     4.5230    -3.5030 H          1 L1        0.048100
     43 H17         14.9460    -0.5020    -0.5320 H          1 L1        0.129000
     44 H18         13.6340    -2.0710     3.3100 H          1 L1        0.331700
@<TRIPOS>BOND
     1     1     2 1   
     2     1    27 1   
     3     1    28 1   
     4     1    29 1   
     5     2     3 2   
     6     2    25 am  
     7     3     4 1   
     8     3     5 1   
     9     4    30 1   
    10     4    44 1   
    11     5     6 1   
    12     5    31 1   
    13     6     7 1   
    14     6    13 1   
    15     6    25 1   
    16     7     8 ar  
    17     7    12 ar  
    18     8     9 ar  
    19     8    32 1   
    20     9    10 ar  
    21     9    33 1   
    22    10    11 ar  
    23    10    34 1   
    24    11    12 ar  
    25    11    35 1   
    26    12    36 1   
    27    13    14 ar  
    28    13    24 ar  
    29    14    15 ar  
    30    14    37 1   
    31    15    16 ar  
    32    15    38 1   
    33    16    17 ar  
    34    16    39 1   
    35    17    18 1   
    36    17    24 ar  
    37    18    19 ar  
    38    18    23 ar  
    39    19    20 ar  
    40    19    40 1   
    41    20    21 ar  
    42    21    22 ar  
    43    21    41 1   
    44    22    23 ar  
    45    22    42 1   
    46    24    43 1   
    47    25    26 2   
@<TRIPOS>SUBSTRUCTURE
     1 L1          1 TEMP              0 ****  ****    0 ROOT
