@<TRIPOS>MOLECULE
L1
45 47 1 0 1
SMALL
USER_CHARGES
@<TRIPOS>CRYSIN
   74.7194    74.7194    74.7194   109.4712   109.4712   109.4712  1  1
@<TRIPOS>ATOM
       1 C4          19.3085    -2.1324   -27.5200 c3            1 L1         0.054000
       2 C5          19.8514    -0.7961   -26.8990 ca            1 L1        -0.147300
       3 C6          20.9792    -0.7383   -26.0487 ca            1 L1        -0.125000
       4 C7          21.5889     0.4697   -25.6612 ca            1 L1        -0.114000
       5 C8          21.0078     1.6872   -26.0059 ca            1 L1        -0.088000
       6 C9          19.9122     1.6983   -26.8213 cp            1 L1        -0.008000
       7 C10         19.3541     3.0180   -27.1475 cp            1 L1        -0.058000
       8 C11         20.1325     4.0774   -27.7863 ca            1 L1        -0.108000
       9 C12         19.5121     5.3695   -27.9422 ca            1 L1        -0.113000
      10 C13         18.1761     5.6361   -27.6213 ca            1 L1        -0.102000
      11 C14         17.4294     4.5825   -27.0326 ca            1 L1         0.018400
      12 C15         17.9750     3.3323   -26.7733 ca            1 L1        -0.115000
      13 C16         19.3609     0.4823   -27.2568 ca            1 L1        -0.103000
      14 N1          18.0025    -2.3754   -26.9597 nu            1 L1        -0.378100
      15 C17         17.0710    -2.4189   -27.8975 cz            1 L1         0.457400
      16 N2          15.8655    -2.9476   -27.6944 nv            1 L1        -0.467200
      17 N3          17.5967    -2.1291   -29.1546 n             1 L1        -0.409300
      18 C18         16.7525    -1.8965   -30.3165 c3            1 L1         0.056300
      19 C19         18.9442    -1.8279   -29.0510 c             1 L1         0.708500
      20 O1          19.5998    -1.4470   -29.9298 o             1 L1        -0.473500
      21 H8          21.3516    -1.6512   -25.5934 ha            1 L1         0.134000
      22 H9          22.4876     0.4385   -25.0524 ha            1 L1         0.156000
      23 H10         21.5090     2.6074   -25.7204 ha            1 L1         0.160000
      24 H11         21.1965     3.9134   -27.9290 ha            1 L1         0.143000
      25 H13         17.7567     6.6216   -27.8007 ha            1 L1         0.161000
      26 H14         17.3443     2.6842   -26.1721 ha            1 L1         0.137000
      27 H15         18.6352     0.5830   -28.0584 ha            1 L1         0.151000
      28 H16         17.9544    -3.0533   -26.2098 hn            1 L1         0.329700
      29 H17         15.1036    -2.4755   -28.1642 hn            1 L1         0.331200
      30 H18         17.3763    -1.3191   -31.0100 h1            1 L1         0.084033
      31 H19         16.6226    -2.8406   -30.8597 h1            1 L1         0.084033
      32 H20         15.8258    -1.3469   -30.1100 h1            1 L1         0.084033
      33 H21         15.5908    -3.1335   -26.7383 hn            1 L1         0.331200
      34 C1          19.4885    -4.8225   -27.5974 c3            1 L1        -0.109100
      35 C2          20.2192    -3.4912   -27.4497 c3            1 L1        -0.048700
      36 C3          21.4881    -3.4588   -28.3617 c3            1 L1        -0.109100
      37 Cl1         15.7507     4.9378   -26.8087 cl            1 L1        -0.077400
      38 H1          20.0941    -5.5175   -28.1921 hc            1 L1         0.057200
      39 H2          19.0906    -5.2228   -26.6568 hc            1 L1         0.057200
      40 H3          18.6059    -4.7113   -28.2394 hc            1 L1         0.057200
      41 H4          20.6792    -3.4361   -26.4553 hc            1 L1         0.076700
      42 H5          22.1695    -4.3115   -28.2519 hc            1 L1         0.057200
      43 H6          21.1281    -3.5790   -29.3910 hc            1 L1         0.057200
      44 H7          22.1480    -2.5832   -28.3247 hc            1 L1         0.057200
      45 H12         20.0959     6.2089   -28.3083 ha            1 L1         0.152000
@<TRIPOS>BOND
       1       19       20 1
       2       17       18 1
       3       17       19 1
       4       15       16 1
       5       15       17 1
       6       14       15 1
       7       11       37 1
       8       11       12 1
       9       10       11 1
      10        9       10 1
      11        8        9 1
      12        7        8 1
      13        7       12 1
      14        6        7 1
      15        6       13 1
      16        5        6 1
      17        4        5 1
      18        3        4 1
      19        2        3 1
      20        2       13 1
      21        1        2 1
      22        1       14 1
      23        1       19 1
      24       35       36 1
      25       35        1 1
      26       34       35 1
      27       18       30 1
      28       18       31 1
      29       18       32 1
      30       16       29 1
      31       16       33 1
      32       14       28 1
      33       13       27 1
      34       12       26 1
      35       10       25 1
      36        9       45 1
      37        8       24 1
      38        5       23 1
      39        4       22 1
      40        3       21 1
      41       36       42 1
      42       36       43 1
      43       36       44 1
      44       35       41 1
      45       34       38 1
      46       34       39 1
      47       34       40 1
@<TRIPOS>SUBSTRUCTURE
       1 L1              1 RESIDUE    0 **** ROOT      0
