@<TRIPOS>MOLECULE
R1
45 48 1 0 1
SMALL
USER_CHARGES
@<TRIPOS>CRYSIN
   74.6401    74.6401    74.6401   109.4712   109.4712   109.4712  1  1
@<TRIPOS>ATOM
       1 C11         19.3085    -2.1324   -27.5200 c3            1 R1         0.109000
       2 C10         19.8514    -0.7961   -26.8990 ca            1 R1        -0.140300
       3 C9          20.9792    -0.7383   -26.0487 ca            1 R1        -0.126000
       4 C8          21.5889     0.4697   -25.6612 ca            1 R1        -0.113000
       5 C7          21.0078     1.6872   -26.0059 ca            1 R1        -0.090000
       6 C6          19.9122     1.6983   -26.8213 cp            1 R1         0.001000
       7 C5          19.3541     3.0180   -27.1475 cp            1 R1        -0.184300
       8 C4          20.1325     4.0774   -27.7863 ca            1 R1         0.412200
       9 N1          19.5121     5.3695   -27.9422 nb            1 R1        -0.647000
      10 C3          18.1761     5.6361   -27.6213 ca            1 R1         0.414200
      11 C2          17.4294     4.5825   -27.0326 ca            1 R1        -0.182600
      12 C19         17.9750     3.3323   -26.7733 ca            1 R1        -0.081000
      13 C18         19.3609     0.4823   -27.2568 ca            1 R1        -0.110000
      14 N2          18.0025    -2.3754   -26.9597 nu            1 R1        -0.392100
      15 C15         17.0710    -2.4189   -27.8975 cz            1 R1         0.467400
      16 N3          15.8655    -2.9476   -27.6944 nv            1 R1        -0.472200
      17 N4          17.5967    -2.1291   -29.1546 n             1 R1        -0.411300
      18 C16         16.7525    -1.8965   -30.3165 c3            1 R1         0.058300
      19 C17         18.9442    -1.8279   -29.0510 c             1 R1         0.705500
      20 O1          19.5998    -1.4470   -29.9298 o             1 R1        -0.476500
      21 H8          21.3516    -1.6512   -25.5934 ha            1 R1         0.124000
      22 H7          22.4876     0.4385   -25.0524 ha            1 R1         0.155000
      23 H6          21.5090     2.6074   -25.7204 ha            1 R1         0.161000
      24 H5          21.1965     3.9134   -27.9290 h4            1 R1         0.027100
      25 H4          17.7567     6.6216   -27.8007 h4            1 R1         0.037100
      26 H20         17.3443     2.6842   -26.1721 ha            1 R1         0.135000
      27 H19         18.6352     0.5830   -28.0584 ha            1 R1         0.161000
      28 H14         17.9544    -3.0533   -26.2098 hn            1 R1         0.339700
      29 H15         15.1036    -2.4755   -28.1642 hn            1 R1         0.331700
      30 H16         17.3763    -1.3191   -31.0100 h1            1 R1         0.083700
      31 H17         16.6226    -2.8406   -30.8597 h1            1 R1         0.083700
      32 H18         15.8258    -1.3469   -30.1100 h1            1 R1         0.083700
      33 H21         15.5908    -3.1335   -26.7383 hn            1 R1         0.331700
      34 C1          15.6782     4.4912   -27.0638 c3            1 R1        -0.055800
      35 C12         19.7413    -3.4331   -26.7846 cx            1 R1        -0.182700
      36 C13         19.5062    -3.9980   -25.4034 cx            1 R1        -0.094900
      37 C14         18.8448    -4.6906   -26.5256 cx            1 R1        -0.094900
      38 H1          15.2437     3.8381   -27.8306 hc            1 R1         0.054367
      39 H2          15.4569     4.0511   -26.0836 hc            1 R1         0.054367
      40 H3          15.3078     5.5238   -27.0513 hc            1 R1         0.054367
      41 H9          20.6305    -3.6895   -27.3549 hc            1 R1         0.098700
      42 H10         20.3991    -4.4767   -25.0096 hc            1 R1         0.093950
      43 H11         18.8337    -3.4883   -24.7182 hc            1 R1         0.093950
      44 H12         17.7589    -4.6461   -26.5045 hc            1 R1         0.093950
      45 H13         19.2071    -5.6719   -26.8212 hc            1 R1         0.093950
@<TRIPOS>BOND
       1       19       20 1
       2       17       18 1
       3       17       19 1
       4       15       16 1
       5       15       17 1
       6       14       15 1
       7       36       37 1
       8       35       36 1
       9       35       37 1
      10        1       35 1
      11        1       14 1
      12        1       19 1
      13        2        1 1
      14        2       13 1
      15        3        2 1
      16        4        3 1
      17        5        4 1
      18        6        5 1
      19        6       13 1
      20        7        6 1
      21        7       12 1
      22        8        7 1
      23        9        8 1
      24       10        9 1
      25       11       10 1
      26       11       12 1
      27       34       11 1
      28       12       26 1
      29       13       27 1
      30       18       30 1
      31       18       31 1
      32       18       32 1
      33       16       29 1
      34       16       33 1
      35       14       28 1
      36       37       44 1
      37       37       45 1
      38       36       42 1
      39       36       43 1
      40       35       41 1
      41        3       21 1
      42        4       22 1
      43        5       23 1
      44        8       24 1
      45       10       25 1
      46       34       38 1
      47       34       39 1
      48       34       40 1
@<TRIPOS>SUBSTRUCTURE
       1 R1              1 RESIDUE    0 **** ROOT      0
