@<TRIPOS>MOLECULE
L1
45 48 1 0 1
SMALL
USER_CHARGES
@<TRIPOS>CRYSIN
   74.6957    74.6957    74.6957   109.4712   109.4712   109.4712  1  1
@<TRIPOS>ATOM
       1 C1          18.4184    -1.2248   -29.4297 c3            1 L1         0.057300
       2 N1          19.1093    -1.5049   -28.1785 n             1 L1        -0.401400
       3 C2          18.5254    -1.7665   -26.9647 cz            1 L1         0.442600
       4 N2          17.3577    -2.3712   -26.8354 nv            1 L1        -0.468200
       5 N3          19.4835    -1.9989   -26.0900 nu            1 L1        -0.370200
       6 C3          20.8738    -1.8523   -26.5924 c3            1 L1         0.123300
       7 C4          21.6129    -3.1969   -26.3734 ca            1 L1        -0.154300
       8 C5          21.5582    -3.7748   -25.1122 ca            1 L1        -0.104500
       9 C6          22.1916    -4.9942   -24.7785 ca            1 L1        -0.117500
      10 C7          22.9769    -5.6287   -25.7404 ca            1 L1        -0.087000
      11 C8          23.0593    -5.0311   -26.9979 ca            1 L1        -0.117500
      12 C9          22.4200    -3.8210   -27.3187 ca            1 L1        -0.104500
      13 C10         21.5953    -0.6241   -25.9800 ca            1 L1        -0.132300
      14 C11         23.0285    -0.6652   -25.7011 ca            1 L1        -0.096000
      15 C12         23.6954     0.5016   -25.4110 ca            1 L1        -0.112000
      16 C13         22.9769     1.6899   -25.3474 ca            1 L1        -0.085000
      17 C14         21.5439     1.8335   -25.5687 cp            1 L1        -0.024000
      18 C15         20.9056     3.1604   -25.7141 cp            1 L1        -0.149300
      19 C16         21.5934     4.3551   -26.1148 ca            1 L1         0.398200
      20 N4          20.9618     5.5074   -26.2801 nb            1 L1        -0.626000
      21 C17         19.6383     5.5609   -25.9556 ca            1 L1         0.384200
      22 C18         18.8818     4.4711   -25.5371 ca            1 L1         0.015600
      23 C19         19.5292     3.2532   -25.3876 ca            1 L1        -0.129000
      24 C20         20.9117     0.5995   -25.8934 ca            1 L1        -0.103000
      25 C21         20.5051    -1.5136   -28.1083 c             1 L1         0.707500
      26 O1          21.1701    -1.2037   -29.1045 o             1 L1        -0.474500
      27 H1          18.4116    -0.1396   -29.5904 h1            1 L1         0.084700
      28 H2          18.9434    -1.7051   -30.2646 h1            1 L1         0.084700
      29 H3          17.3974    -1.6258   -29.4331 h1            1 L1         0.084700
      30 H4          17.0535    -2.6789   -25.9206 hn            1 L1         0.332200
      31 H5          19.2699    -2.6738   -25.3668 hn            1 L1         0.335700
      32 H6          20.9928    -3.3328   -24.2971 ha            1 L1         0.140500
      33 H7          22.0724    -5.3911   -23.7747 ha            1 L1         0.157000
      34 H8          23.5886    -6.4930   -25.4991 ha            1 L1         0.158000
      35 H9          23.8525    -5.3636   -27.6610 ha            1 L1         0.157000
      36 H10         22.6471    -3.3744   -28.2822 ha            1 L1         0.140500
      37 H11         23.6842    -1.4879   -25.9705 ha            1 L1         0.161000
      38 H12         24.7776     0.4136   -25.4289 ha            1 L1         0.160000
      39 H13         23.4797     2.6329   -25.1543 ha            1 L1         0.159000
      40 H14         22.6586     4.3617   -26.3410 h4            1 L1         0.035100
      41 H15         19.1058     6.4740   -26.2174 h4            1 L1         0.052100
      42 H16         19.0031     2.3912   -24.9881 ha            1 L1         0.148000
      43 H17         19.8711     0.5410   -26.1986 ha            1 L1         0.130000
      44 H18         16.5973    -2.4350   -27.5001 hn            1 L1         0.332200
      45 F1          17.5146     4.5230   -25.2100 f             1 L1        -0.120900
@<TRIPOS>BOND
       1       25       26 1
       2       22       45 1
       3       22       23 1
       4       21       22 1
       5       20       21 1
       6       19       20 1
       7       18       19 1
       8       18       23 1
       9       17       18 1
      10       17       24 1
      11       16       17 1
      12       15       16 1
      13       14       15 1
      14       13       14 1
      15       13       24 1
      16       11       12 1
      17       10       11 1
      18        9       10 1
      19        8        9 1
      20        7        8 1
      21        7       12 1
      22        6        7 1
      23        6       13 1
      24        6       25 1
      25        5        6 1
      26        3        4 1
      27        3        5 1
      28        2        3 1
      29        2       25 1
      30        1        2 1
      31       24       43 1
      32       23       42 1
      33       21       41 1
      34       19       40 1
      35       16       39 1
      36       15       38 1
      37       14       37 1
      38       12       36 1
      39       11       35 1
      40       10       34 1
      41        9       33 1
      42        8       32 1
      43        5       31 1
      44        4       30 1
      45        4       44 1
      46        1       27 1
      47        1       28 1
      48        1       29 1
@<TRIPOS>SUBSTRUCTURE
       1 L1              1 RESIDUE    0 **** ROOT      0
