@<TRIPOS>MOLECULE
R1
50 53 1 0 1
SMALL
USER_CHARGES
@<TRIPOS>CRYSIN
   74.7256    74.7256    74.7256   109.4712   109.4712   109.4712  1  1
@<TRIPOS>ATOM
       1 C20         18.4184    -1.2248   -29.4297 c3            1 R1         0.058300
       2 N3          19.1093    -1.5049   -28.1785 n             1 R1        -0.412300
       3 C19         18.5254    -1.7665   -26.9647 cz            1 R1         0.463400
       4 N2          17.3577    -2.3712   -26.8354 nv            1 R1        -0.473200
       5 N1          19.4835    -1.9989   -26.0900 nu            1 R1        -0.390100
       6 C12         20.8738    -1.8523   -26.5924 c3            1 R1         0.131300
       7 C13         21.6129    -3.1969   -26.3734 ca            1 R1        -0.149300
       8 C14         21.5582    -3.7748   -25.1122 ca            1 R1        -0.110500
       9 C15         22.1916    -4.9942   -24.7785 ca            1 R1        -0.118500
      10 C16         22.9769    -5.6287   -25.7404 ca            1 R1        -0.091000
      11 C17         23.0593    -5.0311   -26.9979 ca            1 R1        -0.118500
      12 C18         22.4200    -3.8210   -27.3187 ca            1 R1        -0.110500
      13 C11         21.5953    -0.6241   -25.9800 ca            1 R1        -0.142300
      14 C10         23.0285    -0.6652   -25.7011 ca            1 R1        -0.082000
      15 C9          23.6954     0.5016   -25.4110 ca            1 R1        -0.122000
      16 C8          22.9769     1.6899   -25.3474 ca            1 R1        -0.080000
      17 C7          21.5439     1.8335   -25.5687 cp            1 R1        -0.019000
      18 C6          20.9056     3.1604   -25.7141 cp            1 R1        -0.030000
      19 C5          21.5934     4.3551   -26.1148 ca            1 R1        -0.146000
      20 C4          20.9618     5.5074   -26.2801 ca            1 R1        -0.086000
      21 C3          19.6383     5.5609   -25.9556 ca            1 R1        -0.185000
      22 C2          18.8818     4.4711   -25.5371 ca            1 R1         0.128100
      23 C23         19.5292     3.2532   -25.3876 ca            1 R1        -0.155000
      24 C22         20.9117     0.5995   -25.8934 ca            1 R1        -0.105000
      25 C21         20.5051    -1.5136   -28.1083 c             1 R1         0.705500
      26 O2          21.1701    -1.2037   -29.1045 o             1 R1        -0.468500
      27 H18         18.4116    -0.1396   -29.5904 h1            1 R1         0.082367
      28 H19         18.9434    -1.7051   -30.2646 h1            1 R1         0.082367
      29 H17         17.3974    -1.6258   -29.4331 h1            1 R1         0.082367
      30 H22         17.0535    -2.6789   -25.9206 hn            1 R1         0.330200
      31 H15         19.2699    -2.6738   -25.3668 hn            1 R1         0.339700
      32 H10         20.9928    -3.3328   -24.2971 ha            1 R1         0.144000
      33 H11         22.0724    -5.3911   -23.7747 ha            1 R1         0.156000
      34 H12         23.5886    -6.4930   -25.4991 ha            1 R1         0.157000
      35 H13         23.8525    -5.3636   -27.6610 ha            1 R1         0.156000
      36 H14         22.6471    -3.3744   -28.2822 ha            1 R1         0.144000
      37 H9          23.6842    -1.4879   -25.9705 ha            1 R1         0.155000
      38 H8          24.7776     0.4136   -25.4289 ha            1 R1         0.156000
      39 H7          23.4797     2.6329   -25.1543 ha            1 R1         0.158000
      40 H6          22.6586     4.3617   -26.3410 ha            1 R1         0.141000
      41 H4          19.1058     6.4740   -26.2174 ha            1 R1         0.149000
      42 H21         19.0031     2.3912   -24.9881 ha            1 R1         0.137000
      43 H20         19.8711     0.5410   -26.1986 ha            1 R1         0.128000
      44 H16         16.5973    -2.4350   -27.5001 hn            1 R1         0.330200
      45 C1          16.3984     5.3354   -25.7779 c3            1 R1         0.111700
      46 O1          17.3620     4.3040   -25.5590 os            1 R1        -0.334900
      47 H1          15.4166     4.9394   -25.4903 h1            1 R1         0.051033
      48 H2          16.4340     6.2721   -25.2081 h1            1 R1         0.051033
      49 H3          16.2974     5.5227   -26.8540 h1            1 R1         0.051033
      50 H5          21.3440     6.4036   -26.5724 ha            1 R1         0.146000
@<TRIPOS>BOND
       1       25       26 1
       2        2        1 1
       3        2       25 1
       4        3        4 1
       5        3        2 1
       6        5        3 1
       7       11       12 1
       8       10       11 1
       9        9       10 1
      10        8        9 1
      11        7        8 1
      12        7       12 1
      13        6        7 1
      14        6        5 1
      15        6       25 1
      16       13        6 1
      17       13       24 1
      18       14       13 1
      19       15       14 1
      20       16       15 1
      21       17       16 1
      22       17       24 1
      23       18       17 1
      24       18       23 1
      25       19       18 1
      26       20       19 1
      27       21       20 1
      28       22       21 1
      29       22       23 1
      30       46       22 1
      31       45       46 1
      32       23       42 1
      33       24       43 1
      34        1       29 1
      35        1       27 1
      36        1       28 1
      37        4       44 1
      38        4       30 1
      39        5       31 1
      40       12       36 1
      41       11       35 1
      42       10       34 1
      43        9       33 1
      44        8       32 1
      45       14       37 1
      46       15       38 1
      47       16       39 1
      48       19       40 1
      49       20       50 1
      50       21       41 1
      51       45       47 1
      52       45       48 1
      53       45       49 1
@<TRIPOS>SUBSTRUCTURE
       1 R1              1 RESIDUE    0 **** ROOT      0
