@<TRIPOS>MOLECULE
L1
45 48 1 0 1
SMALL
USER_CHARGES
@<TRIPOS>CRYSIN
   74.6097    74.6097    74.6097   109.4712   109.4712   109.4712  1  1
@<TRIPOS>ATOM
       1 C1          17.0595    -2.2061   -29.5800 c3            1 L1         0.057300
       2 N1          17.7313    -2.5641   -28.3272 n             1 L1        -0.402400
       3 C2          17.1849    -2.6928   -27.0588 cz            1 L1         0.443600
       4 N2          15.9429    -2.8690   -26.7996 nv            1 L1        -0.470200
       5 N3          18.1651    -2.6824   -26.1062 nu            1 L1        -0.372200
       6 C3          19.5572    -2.6608   -26.7199 c3            1 L1         0.126300
       7 C4          20.3448    -3.8979   -26.3336 ca            1 L1        -0.153300
       8 C5          19.9354    -4.8512   -25.3396 ca            1 L1        -0.104000
       9 C6          20.6153    -6.0903   -25.2201 ca            1 L1        -0.118500
      10 C7          21.5904    -6.4700   -26.1751 ca            1 L1        -0.087000
      11 C8          21.9892    -5.5309   -27.1821 ca            1 L1        -0.118500
      12 C9          21.4334    -4.2654   -27.1444 ca            1 L1        -0.104000
      13 C10         20.2195    -1.3832   -26.2827 ca            1 L1        -0.133300
      14 C11         21.2556    -1.4366   -25.3366 ca            1 L1        -0.101000
      15 C12         21.6570    -0.2504   -24.7913 ca            1 L1        -0.112000
      16 C13         21.0910     0.9815   -25.1859 ca            1 L1        -0.088000
      17 C14         20.0879     1.0616   -26.1162 cp            1 L1        -0.016000
      18 C15         19.5130     2.3702   -26.5501 cp            1 L1        -0.182300
      19 C16         18.9774     3.3718   -25.6869 ca            1 L1        -0.084000
      20 C17         18.7133     4.5929   -26.2115 ca            1 L1        -0.243300
      21 C18         18.8226     4.7905   -27.5987 ca            1 L1         0.413200
      22 N4          19.2592     3.8530   -28.4415 nb            1 L1        -0.650000
      23 C19         19.5631     2.7320   -27.9365 ca            1 L1         0.415200
      24 C20         19.6339    -0.1540   -26.5911 ca            1 L1        -0.108000
      25 C21         19.0621    -2.5380   -28.1827 c             1 L1         0.707500
      26 O1          19.8435    -2.4178   -29.1061 o             1 L1        -0.475500
      27 H1          16.7792    -3.1233   -30.1125 h1            1 L1         0.083700
      28 H2          16.1442    -1.6213   -29.4263 h1            1 L1         0.083700
      29 H3          17.7344    -1.6037   -30.2005 h1            1 L1         0.083700
      30 H4          15.5819    -2.7219   -25.8657 hn            1 L1         0.331700
      31 H5          18.0195    -2.8940   -25.1273 hn            1 L1         0.336700
      32 H6          19.2049    -4.6041   -24.5749 ha            1 L1         0.140500
      33 H7          20.2848    -6.7879   -24.4562 ha            1 L1         0.156000
      34 H8          21.9940    -7.4752   -26.0968 ha            1 L1         0.158000
      35 H9          22.7246    -5.8172   -27.9282 ha            1 L1         0.156000
      36 H10         21.7764    -3.6116   -27.9407 ha            1 L1         0.140500
      37 H11         21.7640    -2.3352   -25.0000 ha            1 L1         0.160000
      38 H12         22.5599    -0.2159   -24.1889 ha            1 L1         0.159000
      39 H13         21.5415     1.8619   -24.7373 ha            1 L1         0.159000
      40 H14         18.8044     3.2180   -24.6258 ha            1 L1         0.132000
      41 H16         18.5572     5.7661   -28.0033 h4            1 L1         0.037100
      42 H17         20.0956     2.0420   -28.5893 h4            1 L1         0.029100
      43 H18         18.7229    -0.1098   -27.1807 ha            1 L1         0.128000
      44 H19         15.2075    -2.5911   -27.4368 hn            1 L1         0.331700
      45 H15         18.3728     5.4061   -25.5774 ha            1 L1         0.153000
@<TRIPOS>BOND
       1       25       26 1
       2       22       23 1
       3       21       22 1
       4       20       21 1
       5       19       20 1
       6       18       19 1
       7       18       23 1
       8       17       18 1
       9       17       24 1
      10       16       17 1
      11       15       16 1
      12       14       15 1
      13       13       14 1
      14       13       24 1
      15       11       12 1
      16       10       11 1
      17        9       10 1
      18        8        9 1
      19        7        8 1
      20        7       12 1
      21        6        7 1
      22        6       13 1
      23        6       25 1
      24        5        6 1
      25        3        4 1
      26        3        5 1
      27        2        3 1
      28        2       25 1
      29        1        2 1
      30       24       43 1
      31       23       42 1
      32       21       41 1
      33       20       45 1
      34       19       40 1
      35       16       39 1
      36       15       38 1
      37       14       37 1
      38       12       36 1
      39       11       35 1
      40       10       34 1
      41        9       33 1
      42        8       32 1
      43        5       31 1
      44        4       30 1
      45        4       44 1
      46        1       27 1
      47        1       28 1
      48        1       29 1
@<TRIPOS>SUBSTRUCTURE
       1 L1              1 RESIDUE    0 **** ROOT      0
