@<TRIPOS>MOLECULE
R1
45 48 1 0 1
SMALL
USER_CHARGES
@<TRIPOS>CRYSIN
   74.6957    74.6957    74.6957   109.4712   109.4712   109.4712  1  1
@<TRIPOS>ATOM
       1 C1          17.0595    -2.2061   -29.5800 c3            1 R1         0.057300
       2 N1          17.7313    -2.5641   -28.3272 n             1 R1        -0.401400
       3 C2          17.1849    -2.6928   -27.0588 cz            1 R1         0.442600
       4 N2          15.9429    -2.8690   -26.7996 nv            1 R1        -0.468200
       5 N3          18.1651    -2.6824   -26.1062 nu            1 R1        -0.370200
       6 C3          19.5572    -2.6608   -26.7199 c3            1 R1         0.123300
       7 C4          20.3448    -3.8979   -26.3336 ca            1 R1        -0.154300
       8 C5          19.9354    -4.8512   -25.3396 ca            1 R1        -0.104500
       9 C6          20.6153    -6.0903   -25.2201 ca            1 R1        -0.117500
      10 C7          21.5904    -6.4700   -26.1751 ca            1 R1        -0.087000
      11 C8          21.9892    -5.5309   -27.1821 ca            1 R1        -0.117500
      12 C9          21.4334    -4.2654   -27.1444 ca            1 R1        -0.104500
      13 C10         20.2195    -1.3832   -26.2827 ca            1 R1        -0.132300
      14 C11         21.2556    -1.4366   -25.3366 ca            1 R1        -0.096000
      15 C12         21.6570    -0.2504   -24.7913 ca            1 R1        -0.112000
      16 C13         21.0910     0.9815   -25.1859 ca            1 R1        -0.085000
      17 C14         20.0879     1.0616   -26.1162 cp            1 R1        -0.024000
      18 C15         19.5130     2.3702   -26.5501 cp            1 R1        -0.149300
      19 C19         18.9774     3.3718   -25.6869 ca            1 R1        -0.129000
      20 C18         18.7133     4.5929   -26.2115 ca            1 R1         0.015600
      21 C17         18.8226     4.7905   -27.5987 ca            1 R1         0.384200
      22 N4          19.2592     3.8530   -28.4415 nb            1 R1        -0.626000
      23 C16         19.5631     2.7320   -27.9365 ca            1 R1         0.398200
      24 C20         19.6339    -0.1540   -26.5911 ca            1 R1        -0.103000
      25 C21         19.0621    -2.5380   -28.1827 c             1 R1         0.707500
      26 O1          19.8435    -2.4178   -29.1061 o             1 R1        -0.474500
      27 H3          16.7792    -3.1233   -30.1125 h1            1 R1         0.084700
      28 H1          16.1442    -1.6213   -29.4263 h1            1 R1         0.084700
      29 H2          17.7344    -1.6037   -30.2005 h1            1 R1         0.084700
      30 H4          15.5819    -2.7219   -25.8657 hn            1 R1         0.332200
      31 H5          18.0195    -2.8940   -25.1273 hn            1 R1         0.335700
      32 H6          19.2049    -4.6041   -24.5749 ha            1 R1         0.140500
      33 H7          20.2848    -6.7879   -24.4562 ha            1 R1         0.157000
      34 H8          21.9940    -7.4752   -26.0968 ha            1 R1         0.158000
      35 H9          22.7246    -5.8172   -27.9282 ha            1 R1         0.157000
      36 H10         21.7764    -3.6116   -27.9407 ha            1 R1         0.140500
      37 H11         21.7640    -2.3352   -25.0000 ha            1 R1         0.161000
      38 H12         22.5599    -0.2159   -24.1889 ha            1 R1         0.160000
      39 H13         21.5415     1.8619   -24.7373 ha            1 R1         0.159000
      40 H16         18.8044     3.2180   -24.6258 ha            1 R1         0.148000
      41 H15         18.5572     5.7661   -28.0033 h4            1 R1         0.052100
      42 H14         20.0956     2.0420   -28.5893 h4            1 R1         0.035100
      43 H17         18.7229    -0.1098   -27.1807 ha            1 R1         0.130000
      44 H18         15.2075    -2.5911   -27.4368 hn            1 R1         0.332200
      45 F1          16.2781     3.9617   -26.1241 f             1 R1        -0.120900
@<TRIPOS>BOND
       1       25       26 1
       2       20       45 1
       3       20       19 1
       4       21       20 1
       5       22       21 1
       6       23       22 1
       7       18       23 1
       8       18       19 1
       9       17       18 1
      10       17       24 1
      11       16       17 1
      12       15       16 1
      13       14       15 1
      14       13       14 1
      15       13       24 1
      16       11       12 1
      17       10       11 1
      18        9       10 1
      19        8        9 1
      20        7        8 1
      21        7       12 1
      22        6        7 1
      23        6       13 1
      24        6       25 1
      25        5        6 1
      26        3        4 1
      27        3        5 1
      28        2        3 1
      29        2       25 1
      30        1        2 1
      31       24       43 1
      32       19       40 1
      33       21       41 1
      34       23       42 1
      35       16       39 1
      36       15       38 1
      37       14       37 1
      38       12       36 1
      39       11       35 1
      40       10       34 1
      41        9       33 1
      42        8       32 1
      43        5       31 1
      44        4       30 1
      45        4       44 1
      46        1       28 1
      47        1       29 1
      48        1       27 1
@<TRIPOS>SUBSTRUCTURE
       1 R1              1 RESIDUE    0 **** ROOT      0
