@<TRIPOS>MOLECULE
L1
   45    47     1     0     0
SMALL
No Charge or Current Charge


@<TRIPOS>ATOM
      1 C1          14.8240    -5.5740    -0.0950 C.3        1 L1       -0.109100
      2 C2          15.4100    -4.5800    -1.1310 C.3        1 L1       -0.048700
      3 C3          15.0440    -5.1770    -2.5050 C.3        1 L1       -0.109100
      4 C4          15.0000    -3.0810    -0.8560 C.3        1 L1        0.054000
      5 C5          15.6260    -1.9910    -1.7550 C.ar       1 L1       -0.147300
      6 C6          16.4950    -2.2940    -2.8280 C.ar       1 L1       -0.125000
      7 C7          16.9110    -1.2930    -3.7150 C.ar       1 L1       -0.114000
      8 C8          16.5210     0.0380    -3.5030 C.ar       1 L1       -0.088000
      9 C9          15.7890     0.4120    -2.3600 C.ar       1 L1       -0.008000
     10 C10         15.4740     1.8320    -2.0910 C.ar       1 L1       -0.058000
     11 C11         15.1410     2.7150    -3.1460 C.ar       1 L1       -0.108000
     12 C12         14.7980     4.0580    -2.8920 C.ar       1 L1       -0.113000
     13 C13         14.7940     4.5480    -1.5750 C.ar       1 L1       -0.102000
     14 C14         15.1520     3.6970    -0.5160 C.ar       1 L1        0.018400
     15 Cl1         15.1670     4.3070     1.0980 Cl         1 L1       -0.077400
     16 C15         15.4910     2.3530    -0.7760 C.ar       1 L1       -0.115000
     17 C16         15.3470    -0.6200    -1.5010 C.ar       1 L1       -0.103000
     18 N1          15.3360    -2.7760     0.5280 N.3        1 L1       -0.378100
     19 C17         14.2640    -2.5230     1.2770 C.cat      1 L1        0.457400
     20 N2          14.3550    -2.2990     2.5930 N.3        1 L1       -0.467200
     21 N3          13.1360    -2.5500     0.5500 N.am       1 L1       -0.409300
     22 C18         11.7810    -2.2580     1.0360 C.3        1 L1        0.056300
     23 C19         13.4690    -2.8900    -0.7990 C.2        1 L1        0.708500
     24 O1          12.6470    -3.0010    -1.7150 O.2        1 L1       -0.473500
     25 H1          14.9200    -5.2280     0.9320 H          1 L1        0.057200
     26 H2          13.7610    -5.7560    -0.2620 H          1 L1        0.057200
     27 H3          15.3240    -6.5430    -0.1590 H          1 L1        0.057200
     28 H4          16.4950    -4.6260    -1.0370 H          1 L1        0.076700
     29 H5          15.5210    -6.1490    -2.6420 H          1 L1        0.057200
     30 H6          13.9730    -5.3530    -2.5660 H          1 L1        0.057200
     31 H7          15.3120    -4.5770    -3.3680 H          1 L1        0.057200
     32 H8          16.8570    -3.2880    -3.0200 H          1 L1        0.134000
     33 H9          17.5260    -1.5540    -4.5670 H          1 L1        0.156000
     34 H10         16.8150     0.7850    -4.2160 H          1 L1        0.160000
     35 H11         15.1170     2.3520    -4.1630 H          1 L1        0.143000
     36 H12         14.5200     4.7130    -3.7050 H          1 L1        0.152000
     37 H13         14.5170     5.5730    -1.3740 H          1 L1        0.161000
     38 H14         15.7710     1.7170     0.0480 H          1 L1        0.137000
     39 H15         14.7440    -0.3440    -0.6500 H          1 L1        0.151000
     40 H16         16.2980    -2.7810     0.8710 H          1 L1        0.329700
     41 H17         13.5760    -2.0340     3.1930 H          1 L1        0.331200
     42 H18         11.0170    -2.6390     0.3590 H          1 L1        0.084033
     43 H19         11.6230    -2.7040     2.0160 H          1 L1        0.084033
     44 H20         11.6550    -1.1800     1.1210 H          1 L1        0.084033
     45 H21         15.2760    -2.3090     3.0320 H          1 L1        0.331200
@<TRIPOS>BOND
     1     1     2 1   
     2     1    25 1   
     3     1    26 1   
     4     1    27 1   
     5     2     3 1   
     6     2     4 1   
     7     2    28 1   
     8     3    29 1   
     9     3    30 1   
    10     3    31 1   
    11     4     5 1   
    12     4    18 1   
    13     4    23 1   
    14     5     6 ar  
    15     5    17 ar  
    16     6     7 ar  
    17     6    32 1   
    18     7     8 ar  
    19     7    33 1   
    20     8     9 ar  
    21     8    34 1   
    22     9    10 1   
    23     9    17 ar  
    24    10    11 ar  
    25    10    16 ar  
    26    11    12 ar  
    27    11    35 1   
    28    12    13 ar  
    29    12    36 1   
    30    13    14 ar  
    31    13    37 1   
    32    14    15 1   
    33    14    16 ar  
    34    16    38 1   
    35    17    39 1   
    36    18    19 2   
    37    18    40 1   
    38    19    20 1   
    39    19    21 1   
    40    20    41 1   
    41    20    45 1   
    42    21    22 1   
    43    21    23 am  
    44    22    42 1   
    45    22    43 1   
    46    22    44 1   
    47    23    24 2   
@<TRIPOS>SUBSTRUCTURE
     1 L1          1 TEMP              0 ****  ****    0 ROOT
