@<TRIPOS>MOLECULE
L1
45 48 1 0 1
SMALL
USER_CHARGES
@<TRIPOS>CRYSIN
   74.7164    74.7164    74.7164   109.4712   109.4712   109.4712  1  1
@<TRIPOS>ATOM
       1 C1          17.5586    -2.1222   -29.0599 c3            1 L1         0.058300
       2 N1          18.2368    -2.1541   -27.8001 n             1 L1        -0.403400
       3 C2          17.6604    -2.3311   -26.5729 cz            1 L1         0.445600
       4 N2          16.3787    -2.5025   -26.3958 nv            1 L1        -0.472200
       5 N3          18.5813    -2.4004   -25.6118 nu            1 L1        -0.375200
       6 C3          19.8924    -2.2207   -26.1908 c3            1 L1         0.130300
       7 C4          20.5652    -3.4938   -25.7473 ca            1 L1        -0.150300
       8 C5          21.1889    -4.3855   -26.6761 ca            1 L1        -0.103500
       9 C6          21.8204    -5.5214   -26.2116 ca            1 L1        -0.119000
      10 C7          21.8134    -5.8355   -24.8283 ca            1 L1        -0.088000
      11 C8          21.2645    -4.8998   -23.9374 ca            1 L1        -0.119000
      12 C9          20.6116    -3.7507   -24.3764 ca            1 L1        -0.103500
      13 C10         20.5577    -0.8957   -25.7313 ca            1 L1        -0.140300
      14 C11         21.9431    -0.9239   -25.4942 ca            1 L1        -0.098000
      15 C12         22.6724     0.2638   -25.1812 ca            1 L1        -0.119000
      16 C13         22.0753     1.5029   -25.2150 ca            1 L1        -0.061000
      17 C14         20.6358     1.5658   -25.4167 cp            1 L1        -0.126500
      18 C15         19.8193     2.8847   -25.5740 cp            1 L1         0.433800
      19 C16         18.4796     3.0820   -25.2604 ca            1 L1        -0.239300
      20 C17         17.7970     4.2988   -25.4331 ca            1 L1        -0.090000
      21 C18         18.5396     5.3620   -25.8941 ca            1 L1        -0.229300
      22 C19         19.8885     5.1091   -26.2202 ca            1 L1         0.404200
      23 N4          20.5235     3.8922   -26.1171 nb            1 L1        -0.652000
      24 C20         19.9371     0.3687   -25.6391 ca            1 L1        -0.104000
      25 C21         19.5715    -2.1164   -27.6397 c             1 L1         0.708500
      26 O1          20.4003    -1.9615   -28.5446 o             1 L1        -0.476500
      27 H1          16.5921    -1.6176   -28.9387 h1            1 L1         0.083367
      28 H2          18.1345    -1.5922   -29.8286 h1            1 L1         0.083367
      29 H3          17.3320    -3.1510   -29.3657 h1            1 L1         0.083367
      30 H4          16.0385    -2.7774   -25.4832 hn            1 L1         0.330700
      31 H5          18.3951    -2.7934   -24.6980 hn            1 L1         0.338700
      32 H6          21.2415    -4.1460   -27.7340 ha            1 L1         0.140500
      33 H8          22.1851    -6.8214   -24.5651 ha            1 L1         0.157000
      34 H10         20.2450    -2.9989   -23.6838 ha            1 L1         0.140500
      35 H11         22.4000    -1.9064   -25.4215 ha            1 L1         0.160000
      36 H12         23.7482     0.2692   -25.0324 ha            1 L1         0.158000
      37 H13         22.6533     2.3900   -24.9735 ha            1 L1         0.169000
      38 H14         17.8898     2.2396   -24.9113 ha            1 L1         0.136000
      39 H16         18.0892     6.3499   -25.8695 ha            1 L1         0.157000
      40 H17         20.5472     5.9227   -26.5203 h4            1 L1         0.036100
      41 H18         18.8936     0.4734   -25.9212 ha            1 L1         0.126000
      42 H19         15.7343    -1.9819   -26.9771 hn            1 L1         0.330700
      43 H7          22.1839    -6.2250   -26.9547 ha            1 L1         0.155500
      44 H9          21.3689    -5.1093   -22.8769 ha            1 L1         0.155500
      45 H15         16.7431     4.4398   -25.2121 ha            1 L1         0.147000
@<TRIPOS>BOND
       1       25       26 1
       2       22       23 1
       3       21       22 1
       4       20       21 1
       5       19       20 1
       6       18       19 1
       7       18       23 1
       8       17       18 1
       9       17       24 1
      10       16       17 1
      11       15       16 1
      12       14       15 1
      13       13       14 1
      14       13       24 1
      15       11       12 1
      16       10       11 1
      17        9       10 1
      18        8        9 1
      19        7        8 1
      20        7       12 1
      21        6        7 1
      22        6       13 1
      23        6       25 1
      24        5        6 1
      25        3        4 1
      26        3        5 1
      27        2        3 1
      28        2       25 1
      29        1        2 1
      30       24       41 1
      31       22       40 1
      32       21       39 1
      33       20       45 1
      34       19       38 1
      35       16       37 1
      36       15       36 1
      37       14       35 1
      38       12       34 1
      39       11       44 1
      40       10       33 1
      41        9       43 1
      42        8       32 1
      43        5       31 1
      44        4       30 1
      45        4       42 1
      46        1       27 1
      47        1       28 1
      48        1       29 1
@<TRIPOS>SUBSTRUCTURE
       1 L1              1 RESIDUE    0 **** ROOT      0
