@<TRIPOS>MOLECULE
R1
44 47 1 0 1
SMALL
USER_CHARGES
@<TRIPOS>CRYSIN
   74.6641    74.6641    74.6641   109.4712   109.4712   109.4712  1  1
@<TRIPOS>ATOM
       1 C1          17.5586    -2.1222   -29.0599 c3            1 R1         0.055300
       2 N1          18.2368    -2.1541   -27.8001 n             1 R1        -0.397400
       3 C2          17.6604    -2.3311   -26.5729 cz            1 R1         0.437600
       4 N2          16.3787    -2.5025   -26.3958 nv            1 R1        -0.461200
       5 N3          18.5813    -2.4004   -25.6118 nu            1 R1        -0.365200
       6 C3          19.8924    -2.2207   -26.1908 c3            1 R1         0.132300
       7 C4          20.5652    -3.4938   -25.7473 ca            1 R1        -0.383900
       8 C7          21.1889    -4.3855   -26.6761 ca            1 R1         0.464200
       9 N5          21.8204    -5.5214   -26.2116 nb            1 R1        -0.671000
      10 C6          21.8134    -5.8355   -24.8283 ca            1 R1         0.667900
      11 N4          21.2645    -4.8998   -23.9374 nb            1 R1        -0.671000
      12 C5          20.6116    -3.7507   -24.3764 ca            1 R1         0.464200
      13 C8          20.5577    -0.8957   -25.7313 ca            1 R1        -0.159300
      14 C9          21.9431    -0.9239   -25.4942 ca            1 R1        -0.109000
      15 C10         22.6724     0.2638   -25.1812 ca            1 R1        -0.114000
      16 C11         22.0753     1.5029   -25.2150 ca            1 R1        -0.082000
      17 C12         20.6358     1.5658   -25.4167 cp            1 R1        -0.009000
      18 C13         19.8193     2.8847   -25.5740 cp            1 R1        -0.058000
      19 C18         18.4796     3.0820   -25.2604 ca            1 R1        -0.117000
      20 C17         17.7970     4.2988   -25.4331 ca            1 R1         0.017400
      21 C16         18.5396     5.3620   -25.8941 ca            1 R1        -0.101000
      22 C15         19.8885     5.1091   -26.2202 ca            1 R1        -0.112000
      23 C14         20.5235     3.8922   -26.1171 ca            1 R1        -0.107000
      24 C19         19.9371     0.3687   -25.6391 ca            1 R1        -0.102000
      25 C20         19.5715    -2.1164   -27.6397 c             1 R1         0.703500
      26 O1          20.4003    -1.9615   -28.5446 o             1 R1        -0.469500
      27 H2          16.5921    -1.6176   -28.9387 h1            1 R1         0.086367
      28 H3          18.1345    -1.5922   -29.8286 h1            1 R1         0.086367
      29 H1          17.3320    -3.1510   -29.3657 h1            1 R1         0.086367
      30 H4          16.0385    -2.7774   -25.4832 hn            1 R1         0.333700
      31 H5          18.3951    -2.7934   -24.6980 hn            1 R1         0.332700
      32 H8          21.2415    -4.1460   -27.7340 h4            1 R1         0.043100
      33 H7          22.1851    -6.8214   -24.5651 h5            1 R1         0.082100
      34 H6          20.2450    -2.9989   -23.6838 h4            1 R1         0.043100
      35 H9          22.4000    -1.9064   -25.4215 ha            1 R1         0.141000
      36 H10         23.7482     0.2692   -25.0324 ha            1 R1         0.159000
      37 H11         22.6533     2.3900   -24.9735 ha            1 R1         0.161000
      38 H15         17.8898     2.2396   -24.9113 ha            1 R1         0.135000
      39 H14         18.0892     6.3499   -25.8695 ha            1 R1         0.162000
      40 H13         20.5472     5.9227   -26.5203 ha            1 R1         0.153000
      41 H16         18.8936     0.4734   -25.9212 ha            1 R1         0.145000
      42 H17         15.7343    -1.9819   -26.9771 hn            1 R1         0.333700
      43 Cl1         16.3238     4.0237   -24.6292 cl            1 R1        -0.077400
      44 H12         21.6026     4.1767   -26.2622 ha            1 R1         0.144000
@<TRIPOS>BOND
       1       25       26 1
       2       20       43 1
       3       20       19 1
       4       21       20 1
       5       22       21 1
       6       23       22 1
       7       18       23 1
       8       18       19 1
       9       17       18 1
      10       17       24 1
      11       16       17 1
      12       15       16 1
      13       14       15 1
      14       13       14 1
      15       13       24 1
      16        9        8 1
      17       10        9 1
      18       11       10 1
      19       12       11 1
      20        7       12 1
      21        7        8 1
      22        6        7 1
      23        6       13 1
      24        6       25 1
      25        5        6 1
      26        3        4 1
      27        3        5 1
      28        2        3 1
      29        2       25 1
      30        1        2 1
      31       24       41 1
      32       19       38 1
      33       21       39 1
      34       22       40 1
      35       23       44 1
      36       16       37 1
      37       15       36 1
      38       14       35 1
      39        8       32 1
      40       10       33 1
      41       12       34 1
      42        5       31 1
      43        4       30 1
      44        4       42 1
      45        1       29 1
      46        1       27 1
      47        1       28 1
@<TRIPOS>SUBSTRUCTURE
       1 R1              1 RESIDUE    0 **** ROOT      0
