@<TRIPOS>MOLECULE
L1
   46    49     1     0     0
SMALL
No Charge or Current Charge


@<TRIPOS>ATOM
      1 C1          11.7160    -2.2820     1.2490 C.3        1 L1        0.058300
      2 N1          13.0380    -2.6190     0.7080 N.am       1 L1       -0.404400
      3 C2          14.2060    -2.6010     1.3670 C.cat      1 L1        0.445600
      4 N2          14.3790    -2.3440     2.6660 N.3        1 L1       -0.472200
      5 N3          15.2290    -2.8860     0.5640 N.3        1 L1       -0.374200
      6 C3          14.8080    -3.2130    -0.8000 C.3        1 L1        0.129300
      7 C4          15.1470    -4.6970    -1.0820 C.ar       1 L1       -0.151300
      8 C5          16.3600    -5.2250    -0.5920 C.ar       1 L1       -0.103000
      9 C6          16.7230    -6.5670    -0.7950 C.ar       1 L1       -0.119000
     10 C7          15.8500    -7.4280    -1.4700 C.ar       1 L1       -0.088000
     11 C8          14.6350    -6.9310    -1.9720 C.ar       1 L1       -0.119000
     12 C9          14.2940    -5.5750    -1.7920 C.ar       1 L1       -0.103000
     13 C10         15.3970    -2.2030    -1.8020 C.ar       1 L1       -0.136300
     14 C11         15.9970    -2.6080    -3.0160 C.ar       1 L1       -0.103000
     15 C12         16.4800    -1.6420    -3.9170 C.ar       1 L1       -0.113000
     16 C13         16.3580    -0.2710    -3.6260 C.ar       1 L1       -0.089000
     17 C14         15.7920     0.1720    -2.4130 C.ar       1 L1       -0.015000
     18 C15         15.6400     1.6150    -2.0980 C.ar       1 L1       -0.066000
     19 C16         15.4540     2.5840    -3.1120 C.ar       1 L1       -0.116000
     20 C17         15.2100     3.9360    -2.7900 C.ar       1 L1       -0.124500
     21 C18         15.1600     4.3480    -1.4470 C.ar       1 L1       -0.110000
     22 C19         15.3890     3.4120    -0.4270 C.ar       1 L1       -0.124500
     23 C20         15.6330     2.0660    -0.7580 C.ar       1 L1       -0.116000
     24 C21         15.3280    -0.8150    -1.5130 C.ar       1 L1       -0.110000
     25 C22         13.2880    -2.9670    -0.6530 C.2        1 L1        0.707500
     26 O1          12.4110    -3.0210    -1.5240 O.2        1 L1       -0.476500
     27 H1          11.5250    -1.2190     1.1030 H          1 L1        0.083033
     28 H2          10.9270    -2.8410     0.7450 H          1 L1        0.083033
     29 H3          11.6590    -2.5030     2.3140 H          1 L1        0.083033
     30 H4          15.3220    -2.3530     3.0550 H          1 L1        0.330700
     31 H5          16.2070    -2.8880     0.8510 H          1 L1        0.339700
     32 H6          17.0260    -4.6000    -0.0250 H          1 L1        0.141000
     33 H7          17.6620    -6.9340    -0.4060 H          1 L1        0.156000
     34 H8          16.1110    -8.4660    -1.5840 H          1 L1        0.157000
     35 H9          13.9630    -7.5970    -2.4920 H          1 L1        0.156000
     36 H10         13.3570    -5.2350    -2.1940 H          1 L1        0.141000
     37 H11         16.0920    -3.6530    -3.2800 H          1 L1        0.159000
     38 H12         16.9370    -1.9480    -4.8490 H          1 L1        0.157000
     39 H13         16.7040     0.4470    -4.3530 H          1 L1        0.158000
     40 H14         15.4490     2.2870    -4.1500 H          1 L1        0.131000
     41 H15         15.0280     4.6610    -3.5680 H          1 L1        0.142500
     42 H16         14.9460     5.3790    -1.2000 H          1 L1        0.145000
     43 H17         15.3640     3.7200     0.6080 H          1 L1        0.142500
     44 H18         15.8120     1.3690     0.0410 H          1 L1        0.131000
     45 H19         14.8640    -0.4920    -0.5940 H          1 L1        0.128000
     46 H20         13.6370    -2.0530     3.3010 H          1 L1        0.330700
@<TRIPOS>BOND
     1     1     2 1   
     2     1    27 1   
     3     1    28 1   
     4     1    29 1   
     5     2     3 2   
     6     2    25 am  
     7     3     4 1   
     8     3     5 1   
     9     4    30 1   
    10     4    46 1   
    11     5     6 1   
    12     5    31 1   
    13     6     7 1   
    14     6    13 1   
    15     6    25 1   
    16     7     8 ar  
    17     7    12 ar  
    18     8     9 ar  
    19     8    32 1   
    20     9    10 ar  
    21     9    33 1   
    22    10    11 ar  
    23    10    34 1   
    24    11    12 ar  
    25    11    35 1   
    26    12    36 1   
    27    13    14 ar  
    28    13    24 ar  
    29    14    15 ar  
    30    14    37 1   
    31    15    16 ar  
    32    15    38 1   
    33    16    17 ar  
    34    16    39 1   
    35    17    18 1   
    36    17    24 ar  
    37    18    19 ar  
    38    18    23 ar  
    39    19    20 ar  
    40    19    40 1   
    41    20    21 ar  
    42    20    41 1   
    43    21    22 ar  
    44    21    42 1   
    45    22    23 ar  
    46    22    43 1   
    47    23    44 1   
    48    24    45 1   
    49    25    26 2   
@<TRIPOS>SUBSTRUCTURE
     1 L1          1 TEMP              0 ****  ****    0 ROOT
