@<TRIPOS>MOLECULE
R1
45 48 1 0 1
SMALL
USER_CHARGES
@<TRIPOS>CRYSIN
   74.7164    74.7164    74.7164   109.4712   109.4712   109.4712  1  1
@<TRIPOS>ATOM
       1 C1          18.8146    -0.4892   -29.5705 c3            1 R1         0.058300
       2 N1          19.6440    -0.4142   -28.3238 n             1 R1        -0.403400
       3 C2          19.1911    -0.6520   -27.0503 cz            1 R1         0.445600
       4 N2          17.9414    -1.0701   -26.7518 nv            1 R1        -0.472200
       5 N3          20.1235    -0.4378   -26.1127 nu            1 R1        -0.375200
       6 C3          21.4401    -0.1746   -26.7592 c3            1 R1         0.130300
       7 C10         21.9624     1.1927   -26.2897 ca            1 R1        -0.140300
       8 C11         23.1372     1.3428   -25.6194 ca            1 R1        -0.098000
       9 C12         23.3475     2.5810   -24.9535 ca            1 R1        -0.119000
      10 C13         22.5087     3.7171   -25.1768 ca            1 R1        -0.061000
      11 C14         21.4137     3.5032   -26.0500 cp            1 R1        -0.126500
      12 C15         20.5944     4.6182   -26.5152 cp            1 R1         0.433800
      13 N4          21.2864     5.5938   -27.2605 nb            1 R1        -0.652000
      14 C19         20.6047     6.7395   -27.7393 ca            1 R1         0.404200
      15 C18         19.2812     6.9531   -27.3684 ca            1 R1        -0.229300
      16 C17         18.5939     5.9546   -26.6569 ca            1 R1        -0.090000
      17 C16         19.1928     4.8344   -26.1711 ca            1 R1        -0.239300
      18 C20         21.1121     2.1934   -26.4541 ca            1 R1        -0.104000
      19 C4          22.4291    -1.3461   -26.4107 ca            1 R1        -0.150300
      20 C5          22.1920    -2.1368   -25.3418 ca            1 R1        -0.103500
      21 C6          22.9704    -3.2020   -25.1636 ca            1 R1        -0.119000
      22 C7          23.9311    -3.5679   -26.0743 ca            1 R1        -0.088000
      23 C8          24.1172    -2.6800   -27.1836 ca            1 R1        -0.119000
      24 C9          23.4209    -1.6535   -27.3597 ca            1 R1        -0.103500
      25 C21         21.0075    -0.2841   -28.1965 c             1 R1         0.708500
      26 O1          21.7981    -0.1579   -29.1222 o             1 R1        -0.476500
      27 H3          19.4691    -0.3192   -30.4342 h1            1 R1         0.083367
      28 H1          18.2493    -1.4166   -29.7249 h1            1 R1         0.083367
      29 H2          18.0277     0.2745   -29.5381 h1            1 R1         0.083367
      30 H4          17.6865    -1.3686   -25.8190 hn            1 R1         0.330700
      31 H5          20.1134    -1.0859   -25.3356 hn            1 R1         0.338700
      32 H11         23.7296     0.5132   -25.2449 ha            1 R1         0.160000
      33 H12         24.2020     2.7100   -24.2958 ha            1 R1         0.158000
      34 H13         22.5929     4.6947   -24.7114 ha            1 R1         0.169000
      35 H17         21.2225     7.4428   -28.2899 h4            1 R1         0.036100
      36 H16         18.7972     7.7867   -27.8687 ha            1 R1         0.157000
      37 H14         18.6618     4.1573   -25.5085 ha            1 R1         0.136000
      38 H18         20.2509     2.0602   -27.1021 ha            1 R1         0.126000
      39 H7          22.6520    -3.8910   -24.3826 ha            1 R1         0.155500
      40 H8          24.3945    -4.5490   -26.0276 ha            1 R1         0.157000
      41 H9          24.7868    -2.8803   -28.0187 ha            1 R1         0.155500
      42 H19         17.1209    -0.7500   -27.2503 hn            1 R1         0.330700
      43 H6          22.9418    -2.0718   -28.3493 ha            1 R1         0.140500
      44 H10         21.8193    -0.9258   -24.3319 ha            1 R1         0.140500
      45 H15         17.3256     5.9056   -26.0842 ha            1 R1         0.147000
@<TRIPOS>BOND
       1       25       26 1
       2       14       13 1
       3       15       14 1
       4       16       15 1
       5       17       16 1
       6       12       17 1
       7       12       13 1
       8       11       12 1
       9       11       18 1
      10       10       11 1
      11        9       10 1
      12        8        9 1
      13        7        8 1
      14        7       18 1
      15       23       24 1
      16       22       23 1
      17       21       22 1
      18       20       21 1
      19       19       20 1
      20       19       24 1
      21        6       19 1
      22        6        7 1
      23        6       25 1
      24        5        6 1
      25        3        4 1
      26        3        5 1
      27        2        3 1
      28        2       25 1
      29        1        2 1
      30       18       38 1
      31       14       35 1
      32       15       36 1
      33       16       45 1
      34       17       37 1
      35       10       34 1
      36        9       33 1
      37        8       32 1
      38       24       44 1
      39       23       41 1
      40       22       40 1
      41       21       39 1
      42       20       43 1
      43        5       31 1
      44        4       30 1
      45        4       42 1
      46        1       28 1
      47        1       29 1
      48        1       27 1
@<TRIPOS>SUBSTRUCTURE
       1 R1              1 RESIDUE    0 **** ROOT      0
