@<TRIPOS>MOLECULE
R1
49 52 1 0 1
SMALL
USER_CHARGES
@<TRIPOS>CRYSIN
   74.6696    74.6696    74.6696   109.4712   109.4712   109.4712  1  1
@<TRIPOS>ATOM
       1 C13         18.3808     4.1590   -27.3151 ca            1 R1         0.015400
       2 C12         19.1602     5.3055   -27.6577 ca            1 R1        -0.105000
       3 C11         20.5171     5.2080   -27.9449 ca            1 R1        -0.112000
       4 C10         21.1514     4.0251   -27.8542 ca            1 R1        -0.109000
       5 C9          20.4711     2.8406   -27.3721 cp            1 R1        -0.053000
       6 C8          21.1992     1.4592   -27.3048 cp            1 R1        -0.017000
       7 C7          22.5929     1.3971   -27.0869 ca            1 R1        -0.081000
       8 C6          23.2590     0.1970   -26.9248 ca            1 R1        -0.119000
       9 C5          22.5830    -1.0402   -27.0979 ca            1 R1        -0.092000
      10 C4          21.1976    -0.9916   -27.5237 ca            1 R1        -0.132300
      11 C3          20.3694    -2.2648   -27.7934 c3            1 R1         0.064000
      12 N3          19.0193    -2.2132   -27.1129 nu            1 R1        -0.361200
      13 C2          17.9572    -1.9850   -27.8945 cz            1 R1         0.433600
      14 N2          16.8050    -2.5439   -27.5844 nv            1 R1        -0.469200
      15 N1          18.4231    -2.0127   -29.1959 n             1 R1        -0.405400
      16 C1          17.7036    -2.3354   -30.4992 c3            1 R1         0.057300
      17 C21         19.8251    -2.1622   -29.1995 c             1 R1         0.698500
      18 O1          20.4841    -2.1298   -30.2505 o             1 R1        -0.464500
      19 C15         20.5428     0.2520   -27.5529 ca            1 R1        -0.106000
      20 C14         19.0527     2.9500   -27.1316 ca            1 R1        -0.122000
      21 H11         18.7605     6.3146   -27.7454 ha            1 R1         0.161000
      22 H9          22.2177     4.0253   -28.0753 ha            1 R1         0.145000
      23 H8          23.2430     2.2658   -27.0413 ha            1 R1         0.159000
      24 H7          24.2757     0.3234   -26.5647 ha            1 R1         0.157000
      25 H6          23.0823    -1.9987   -26.9916 ha            1 R1         0.147000
      26 H5          18.9467    -2.5856   -26.1747 hn            1 R1         0.339700
      27 H4          15.9674    -2.5133   -28.1516 hn            1 R1         0.331200
      28 H1          16.6156    -2.2930   -30.3657 h1            1 R1         0.083033
      29 H2          17.9914    -1.5471   -31.2058 h1            1 R1         0.083033
      30 H3          18.0470    -3.2797   -30.9394 h1            1 R1         0.083033
      31 H13         19.5080     0.2513   -27.8824 ha            1 R1         0.125000
      32 H12         18.5397     2.0967   -26.6979 ha            1 R1         0.136000
      33 H23         16.5019    -2.7301   -26.6370 hn            1 R1         0.331200
      34 Cl1         16.8886     4.3338   -26.6896 cl            1 R1        -0.081400
      35 C16         21.0720    -3.7489   -27.3715 c3            1 R1        -0.078700
      36 C17         21.2694    -4.0642   -25.9262 c3            1 R1        -0.092400
      37 C18         21.1076    -5.5306   -25.7535 c3            1 R1        -0.088900
      38 C19         20.8576    -6.1836   -27.1160 c3            1 R1        -0.088900
      39 C20         20.4090    -5.0220   -27.9163 c3            1 R1        -0.092400
      40 H10         20.9263     5.9461   -28.8249 ha            1 R1         0.153000
      41 H14         22.0639    -3.7698   -27.8394 hc            1 R1         0.102700
      42 H15         22.2700    -3.7119   -25.6465 hc            1 R1         0.063450
      43 H16         20.4698    -3.6577   -25.2947 hc            1 R1         0.063450
      44 H17         22.0222    -5.9473   -25.3137 hc            1 R1         0.053450
      45 H18         20.2834    -5.8452   -25.1013 hc            1 R1         0.053450
      46 H19         21.8045    -6.4202   -27.6167 hc            1 R1         0.053450
      47 H20         20.1565    -7.0230   -27.0301 hc            1 R1         0.053450
      48 H21         19.3289    -4.9389   -27.7433 hc            1 R1         0.063450
      49 H22         20.6269    -5.2491   -28.9671 hc            1 R1         0.063450
@<TRIPOS>BOND
       1       17       18 1
       2       38       39 1
       3       37       38 1
       4       36       37 1
       5       35       36 1
       6       35       39 1
       7        1       34 1
       8        1       20 1
       9        2        1 1
      10        3        2 1
      11        4        3 1
      12        5        4 1
      13        5       20 1
      14        6        5 1
      15        6       19 1
      16        7        6 1
      17        8        7 1
      18        9        8 1
      19       10        9 1
      20       10       19 1
      21       11       10 1
      22       11       35 1
      23       11       17 1
      24       12       11 1
      25       13       14 1
      26       13       12 1
      27       15       13 1
      28       15       17 1
      29       16       15 1
      30       39       48 1
      31       39       49 1
      32       38       46 1
      33       38       47 1
      34       37       44 1
      35       37       45 1
      36       36       42 1
      37       36       43 1
      38       35       41 1
      39       19       31 1
      40       20       32 1
      41        2       21 1
      42        3       40 1
      43        4       22 1
      44        7       23 1
      45        8       24 1
      46        9       25 1
      47       12       26 1
      48       14       27 1
      49       14       33 1
      50       16       28 1
      51       16       29 1
      52       16       30 1
@<TRIPOS>SUBSTRUCTURE
       1 R1              1 RESIDUE    0 **** ROOT      0
