@<TRIPOS>MOLECULE
L1
   45    48     1     0     0
SMALL
No Charge or Current Charge


@<TRIPOS>ATOM
      1 C1          11.7150    -2.1700     1.1860 C.3        1 L1        0.057300
      2 N1          13.0470    -2.4710     0.6540 N.am       1 L1       -0.401400
      3 C2          14.2070    -2.4900     1.3300 C.cat      1 L1        0.442600
      4 N2          14.3600    -2.2950     2.6440 N.3        1 L1       -0.468200
      5 N3          15.2420    -2.7550     0.5320 N.3        1 L1       -0.370200
      6 C3          14.8170    -3.0610    -0.8290 C.3        1 L1        0.124300
      7 C4          15.0770    -4.5790    -1.0200 C.ar       1 L1       -0.154300
      8 C5          14.2710    -5.5610    -0.3780 C.ar       1 L1       -0.104500
      9 C6          14.5690    -6.9360    -0.4680 C.ar       1 L1       -0.118000
     10 C7          15.6910    -7.3650    -1.1930 C.ar       1 L1       -0.087000
     11 C8          16.5200    -6.4110    -1.8040 C.ar       1 L1       -0.118000
     12 C9          16.2190    -5.0420    -1.7030 C.ar       1 L1       -0.104500
     13 C10         15.3780    -2.0330    -1.8470 C.ar       1 L1       -0.132300
     14 C11         15.7360    -2.3800    -3.1720 C.ar       1 L1       -0.097000
     15 C12         16.2340    -1.4070    -4.0510 C.ar       1 L1       -0.112000
     16 C13         16.2510    -0.0550    -3.6770 C.ar       1 L1       -0.086000
     17 C14         15.7990     0.3580    -2.4050 C.ar       1 L1       -0.021000
     18 C15         15.6220     1.8000    -2.0870 C.ar       1 L1       -0.168300
     19 C16         15.3730     2.7530    -3.1060 C.ar       1 L1        0.414200
     20 N4          15.0850     4.0530    -2.8900 N.ar       1 L1       -0.640000
     21 C17         15.0310     4.4850    -1.6170 C.ar       1 L1        0.421200
     22 C18         15.2980     3.6530    -0.5190 C.ar       1 L1       -0.106900
     23 Cl1         15.2310     4.2780     1.0890 Cl         1 L1       -0.055400
     24 C19         15.6050     2.3010    -0.7650 C.ar       1 L1       -0.085000
     25 C20         15.4330    -0.6570    -1.4880 C.ar       1 L1       -0.105000
     26 C21         13.3070    -2.7860    -0.7110 C.2        1 L1        0.707500
     27 O1          12.4450    -2.8370    -1.5960 O.2        1 L1       -0.475500
     28 H1          11.5250    -1.1040     1.0830 H          1 L1        0.083700
     29 H2          10.9390    -2.7030     0.6370 H          1 L1        0.083700
     30 H3          11.6390    -2.4490     2.2400 H          1 L1        0.083700
     31 H4          15.2990    -2.3280     3.0410 H          1 L1        0.331700
     32 H5          16.2150    -2.8180     0.8300 H          1 L1        0.336700
     33 H6          13.4190    -5.2900     0.2240 H          1 L1        0.141000
     34 H7          13.9460    -7.6600     0.0350 H          1 L1        0.156500
     35 H8          15.9300    -8.4170    -1.2500 H          1 L1        0.158000
     36 H9          17.4130    -6.7100    -2.3270 H          1 L1        0.156500
     37 H10         16.9010    -4.3390    -2.1390 H          1 L1        0.141000
     38 H11         15.6490    -3.3890    -3.5500 H          1 L1        0.161000
     39 H12         16.5690    -1.6940    -5.0380 H          1 L1        0.160000
     40 H13         16.5830     0.6670    -4.4090 H          1 L1        0.159000
     41 H14         15.3360     2.4540    -4.1430 H          1 L1        0.034100
     42 H15         14.7750     5.5230    -1.4710 H          1 L1        0.051100
     43 H16         15.8110     1.6510     0.0680 H          1 L1        0.145000
     44 H17         15.0960    -0.3620    -0.5080 H          1 L1        0.130000
     45 H18         13.6150    -2.0120     3.2790 H          1 L1        0.331700
@<TRIPOS>BOND
     1     1     2 1   
     2     1    28 1   
     3     1    29 1   
     4     1    30 1   
     5     2     3 2   
     6     2    26 am  
     7     3     4 1   
     8     3     5 1   
     9     4    31 1   
    10     4    45 1   
    11     5     6 1   
    12     5    32 1   
    13     6     7 1   
    14     6    13 1   
    15     6    26 1   
    16     7     8 ar  
    17     7    12 ar  
    18     8     9 ar  
    19     8    33 1   
    20     9    10 ar  
    21     9    34 1   
    22    10    11 ar  
    23    10    35 1   
    24    11    12 ar  
    25    11    36 1   
    26    12    37 1   
    27    13    14 ar  
    28    13    25 ar  
    29    14    15 ar  
    30    14    38 1   
    31    15    16 ar  
    32    15    39 1   
    33    16    17 ar  
    34    16    40 1   
    35    17    18 1   
    36    17    25 ar  
    37    18    19 ar  
    38    18    24 ar  
    39    19    20 ar  
    40    19    41 1   
    41    20    21 ar  
    42    21    22 ar  
    43    21    42 1   
    44    22    23 1   
    45    22    24 ar  
    46    24    43 1   
    47    25    44 1   
    48    26    27 2   
@<TRIPOS>SUBSTRUCTURE
     1 L1          1 TEMP              0 ****  ****    0 ROOT
