@<TRIPOS>MOLECULE
L1
46 49 1 0 1
SMALL
USER_CHARGES
@<TRIPOS>CRYSIN
   74.6053    74.6053    74.6053   109.4712   109.4712   109.4712  1  1
@<TRIPOS>ATOM
       1 C1          18.6030    -1.4940   -30.6912 c3            1 L1         0.058300
       2 N1          19.3319    -1.6190   -29.4118 n             1 L1        -0.404400
       3 C2          18.7696    -2.0679   -28.2040 cz            1 L1         0.448600
       4 N2          17.4988    -2.5184   -27.9799 nv            1 L1        -0.475200
       5 N3          19.7511    -2.1535   -27.2919 nu            1 L1        -0.379200
       6 C3          21.1074    -1.9364   -27.8264 c3            1 L1         0.116000
       7 C4          21.7011    -0.6982   -27.1970 ca            1 L1        -0.139300
       8 C5          22.7027    -0.6556   -26.2581 ca            1 L1        -0.122000
       9 C6          23.2889     0.5184   -25.8321 ca            1 L1        -0.116000
      10 C7          22.7917     1.7045   -26.1855 ca            1 L1        -0.089000
      11 C8          21.5561     1.7697   -26.9459 cp            1 L1        -0.007000
      12 C9          20.9103     3.0424   -27.2109 cp            1 L1        -0.059000
      13 C10         21.5971     3.9967   -27.9417 ca            1 L1        -0.110000
      14 C11         20.9378     5.2241   -28.2132 ca            1 L1        -0.114000
      15 C12         19.6301     5.5577   -27.8302 ca            1 L1        -0.103000
      16 C13         18.9512     4.5552   -27.1283 ca            1 L1         0.017400
      17 C14         19.5749     3.2928   -26.8888 ca            1 L1        -0.112000
      18 C15         21.0362     0.5676   -27.4348 ca            1 L1        -0.110000
      19 C16         21.6077    -3.4198   -27.7708 cx            1 L1        -0.166000
      20 C18         23.0452    -3.7512   -27.5074 cx            1 L1        -0.093400
      21 C19         21.9361    -4.0549   -26.4531 cx            1 L1        -0.093400
      22 C20         20.7489    -1.5105   -29.2831 c             1 L1         0.708500
      23 O1          21.5073    -1.0556   -30.1582 o             1 L1        -0.477500
      24 H1          18.9757    -2.0854   -31.5366 h1            1 L1         0.083033
      25 H2          17.5548    -1.7967   -30.5767 h1            1 L1         0.083033
      26 H3          18.7311    -0.4741   -31.0743 h1            1 L1         0.083033
      27 H4          16.8509    -2.1200   -28.6476 hn            1 L1         0.331200
      28 H5          19.6071    -2.6533   -26.4238 hn            1 L1         0.340700
      29 H6          23.2969    -1.5230   -25.9861 ha            1 L1         0.123000
      30 H7          24.0090     0.3578   -25.0352 ha            1 L1         0.154000
      31 H8          23.1549     2.6218   -25.7316 ha            1 L1         0.160000
      32 H9          22.6240     3.9041   -28.2826 ha            1 L1         0.141000
      33 H11         19.1872     6.5051   -28.1228 ha            1 L1         0.161000
      34 H12         19.0210     2.5064   -26.3846 ha            1 L1         0.142000
      35 H13         20.1505     0.6059   -28.0620 ha            1 L1         0.164000
      36 H17         23.4973    -4.6650   -27.8845 hc            1 L1         0.093450
      37 H18         23.7526    -2.9419   -27.3452 hc            1 L1         0.093450
      38 H19         21.8252    -3.3158   -25.6637 hc            1 L1         0.093450
      39 H20         21.5656    -5.0697   -26.3327 hc            1 L1         0.093450
      40 H21         17.1610    -2.3732   -27.0371 hn            1 L1         0.331200
      41 Cl1         17.2513     4.6772   -26.7900 cl            1 L1        -0.074400
      42 C17         20.8458    -4.3705   -28.7348 c3            1 L1        -0.077100
      43 H10         21.5803     5.9276   -28.7345 ha            1 L1         0.151000
      44 H14         21.2877    -5.3649   -28.5962 hc            1 L1         0.051367
      45 H15         19.7982    -4.5468   -28.4611 hc            1 L1         0.051367
      46 H16         20.8357    -4.1323   -29.8056 hc            1 L1         0.051367
@<TRIPOS>BOND
       1       22       23 1
       2       20       21 1
       3       19       42 1
       4       19       20 1
       5       19       21 1
       6       16       41 1
       7       16       17 1
       8       15       16 1
       9       14       15 1
      10       13       14 1
      11       12       13 1
      12       12       17 1
      13       11       12 1
      14       11       18 1
      15       10       11 1
      16        9       10 1
      17        8        9 1
      18        7        8 1
      19        7       18 1
      20        6        7 1
      21        6       19 1
      22        6       22 1
      23        5        6 1
      24        3        4 1
      25        3        5 1
      26        2        3 1
      27        2       22 1
      28        1        2 1
      29       21       38 1
      30       21       39 1
      31       20       36 1
      32       20       37 1
      33       42       44 1
      34       42       45 1
      35       42       46 1
      36       18       35 1
      37       17       34 1
      38       15       33 1
      39       14       43 1
      40       13       32 1
      41       10       31 1
      42        9       30 1
      43        8       29 1
      44        5       28 1
      45        4       27 1
      46        4       40 1
      47        1       24 1
      48        1       25 1
      49        1       26 1
@<TRIPOS>SUBSTRUCTURE
       1 L1              1 RESIDUE    0 **** ROOT      0
