@<TRIPOS>MOLECULE
R1
45 48 1 0 1
SMALL
USER_CHARGES
@<TRIPOS>CRYSIN
   74.6401    74.6401    74.6401   109.4712   109.4712   109.4712  1  1
@<TRIPOS>ATOM
       1 C16         18.6030    -1.4940   -30.6912 c3            1 R1         0.058300
       2 N4          19.3319    -1.6190   -29.4118 n             1 R1        -0.411300
       3 C15         18.7696    -2.0679   -28.2040 cz            1 R1         0.467400
       4 N3          17.4988    -2.5184   -27.9799 nv            1 R1        -0.472200
       5 N2          19.7511    -2.1535   -27.2919 nu            1 R1        -0.392100
       6 C11         21.1074    -1.9364   -27.8264 c3            1 R1         0.109000
       7 C10         21.7011    -0.6982   -27.1970 ca            1 R1        -0.140300
       8 C9          22.7027    -0.6556   -26.2581 ca            1 R1        -0.126000
       9 C8          23.2889     0.5184   -25.8321 ca            1 R1        -0.113000
      10 C7          22.7917     1.7045   -26.1855 ca            1 R1        -0.090000
      11 C6          21.5561     1.7697   -26.9459 cp            1 R1         0.001000
      12 C5          20.9103     3.0424   -27.2109 cp            1 R1        -0.184300
      13 C4          21.5971     3.9967   -27.9417 ca            1 R1         0.412200
      14 N1          20.9378     5.2241   -28.2132 nb            1 R1        -0.647000
      15 C3          19.6301     5.5577   -27.8302 ca            1 R1         0.414200
      16 C2          18.9512     4.5552   -27.1283 ca            1 R1        -0.182600
      17 C19         19.5749     3.2928   -26.8888 ca            1 R1        -0.081000
      18 C18         21.0362     0.5676   -27.4348 ca            1 R1        -0.110000
      19 C12         21.6077    -3.4198   -27.7708 cx            1 R1        -0.182700
      20 C13         23.0452    -3.7512   -27.5074 cx            1 R1        -0.094900
      21 C14         21.9361    -4.0549   -26.4531 cx            1 R1        -0.094900
      22 C17         20.7489    -1.5105   -29.2831 c             1 R1         0.705500
      23 O1          21.5073    -1.0556   -30.1582 o             1 R1        -0.476500
      24 H18         18.9757    -2.0854   -31.5366 h1            1 R1         0.083700
      25 H16         17.5548    -1.7967   -30.5767 h1            1 R1         0.083700
      26 H17         18.7311    -0.4741   -31.0743 h1            1 R1         0.083700
      27 H15         16.8509    -2.1200   -28.6476 hn            1 R1         0.331700
      28 H14         19.6071    -2.6533   -26.4238 hn            1 R1         0.339700
      29 H8          23.2969    -1.5230   -25.9861 ha            1 R1         0.124000
      30 H7          24.0090     0.3578   -25.0352 ha            1 R1         0.155000
      31 H6          23.1549     2.6218   -25.7316 ha            1 R1         0.161000
      32 H5          22.6240     3.9041   -28.2826 h4            1 R1         0.027100
      33 H4          19.1872     6.5051   -28.1228 h4            1 R1         0.037100
      34 H20         19.0210     2.5064   -26.3846 ha            1 R1         0.135000
      35 H19         20.1505     0.6059   -28.0620 ha            1 R1         0.161000
      36 H10         23.4973    -4.6650   -27.8845 hc            1 R1         0.093950
      37 H11         23.7526    -2.9419   -27.3452 hc            1 R1         0.093950
      38 H12         21.8252    -3.3158   -25.6637 hc            1 R1         0.093950
      39 H13         21.5656    -5.0697   -26.3327 hc            1 R1         0.093950
      40 H21         17.1610    -2.3732   -27.0371 hn            1 R1         0.331700
      41 C1          17.2141     4.3227   -26.7348 c3            1 R1        -0.055800
      42 H1          16.7670     3.6856   -27.5077 hc            1 R1         0.054367
      43 H2          17.1392     3.7919   -25.7777 hc            1 R1         0.054367
      44 H3          16.7496     5.3076   -26.6013 hc            1 R1         0.054367
      45 H9          22.8719    -3.2563   -28.1775 hc            1 R1         0.098700
@<TRIPOS>BOND
       1       22       23 1
       2        2        1 1
       3        2       22 1
       4        3        4 1
       5        3        2 1
       6        5        3 1
       7       20       21 1
       8       19       20 1
       9       19       21 1
      10        6       19 1
      11        6        5 1
      12        6       22 1
      13        7        6 1
      14        7       18 1
      15        8        7 1
      16        9        8 1
      17       10        9 1
      18       11       10 1
      19       11       18 1
      20       12       11 1
      21       12       17 1
      22       13       12 1
      23       14       13 1
      24       15       14 1
      25       16       15 1
      26       16       17 1
      27       41       16 1
      28       17       34 1
      29       18       35 1
      30        1       25 1
      31        1       26 1
      32        1       24 1
      33        4       27 1
      34        4       40 1
      35        5       28 1
      36       21       38 1
      37       21       39 1
      38       20       36 1
      39       20       37 1
      40       19       45 1
      41        8       29 1
      42        9       30 1
      43       10       31 1
      44       13       32 1
      45       15       33 1
      46       41       42 1
      47       41       43 1
      48       41       44 1
@<TRIPOS>SUBSTRUCTURE
       1 R1              1 RESIDUE    0 **** ROOT      0
