@<TRIPOS>MOLECULE
L1
50 53 1 0 1
SMALL
USER_CHARGES
@<TRIPOS>CRYSIN
   74.6583    74.6583    74.6583   109.4712   109.4712   109.4712  1  1
@<TRIPOS>ATOM
       1 C2          21.2315     4.0954   -25.1572 ca            1 L1         0.148100
       2 C3          20.4060     3.1610   -24.4789 ca            1 L1        -0.181000
       3 C4          20.6381     1.7978   -24.6113 ca            1 L1        -0.079500
       4 C5          21.6470     1.2930   -25.4762 cp            1 L1        -0.106000
       5 C6          21.9396    -0.2195   -25.6158 cp            1 L1        -0.007000
       6 C7          23.2785    -0.7019   -25.7899 ca            1 L1        -0.087000
       7 C8          23.6135    -2.0738   -25.8598 ca            1 L1        -0.120000
       8 C9          22.6106    -2.9858   -25.7664 ca            1 L1        -0.087000
       9 C10         21.2818    -2.6037   -25.5811 ca            1 L1        -0.140300
      10 C11         20.1730    -3.6182   -25.6528 c3            1 L1         0.129300
      11 C12         20.5863    -4.7965   -24.7578 ca            1 L1        -0.151300
      12 C13         20.8306    -6.0832   -25.3491 ca            1 L1        -0.110500
      13 C14         21.3479    -7.1673   -24.5845 ca            1 L1        -0.118000
      14 C15         21.8698    -6.9114   -23.3258 ca            1 L1        -0.091000
      15 C16         21.7225    -5.6458   -22.6593 ca            1 L1        -0.118000
      16 C17         21.1173    -4.5909   -23.3583 ca            1 L1        -0.110500
      17 N1          18.8868    -3.1464   -25.1371 nu            1 L1        -0.386100
      18 C18         17.9089    -3.1769   -26.0617 cz            1 L1         0.461400
      19 N2          16.7675    -2.5598   -25.8775 nv            1 L1        -0.473200
      20 N3          18.4112    -3.5545   -27.3519 n             1 L1        -0.411300
      21 C19         17.6988    -3.4641   -28.6576 c3            1 L1         0.057300
      22 C20         19.7662    -3.8839   -27.1573 c             1 L1         0.705500
      23 O2          20.4613    -4.2311   -28.0562 o             1 L1        -0.468500
      24 C21         20.9511    -1.1945   -25.5004 ca            1 L1        -0.110000
      25 C22         22.5936     2.2232   -25.9993 ca            1 L1        -0.079500
      26 C23         22.3388     3.5705   -25.8905 ca            1 L1        -0.181000
      27 H5          19.9454     1.2413   -23.9868 ha            1 L1         0.132000
      28 H6          24.0997     0.0083   -25.7653 ha            1 L1         0.156000
      29 H7          24.6517    -2.3534   -26.0130 ha            1 L1         0.155000
      30 H8          22.8785    -4.0278   -25.9146 ha            1 L1         0.154000
      31 H9          20.5247    -6.3535   -26.3555 ha            1 L1         0.144000
      32 H10         21.4524    -8.1289   -25.0782 ha            1 L1         0.156500
      33 H11         22.4321    -7.7307   -22.8876 ha            1 L1         0.157000
      34 H12         22.0445    -5.4505   -21.6407 ha            1 L1         0.156500
      35 H13         21.1952    -3.5855   -22.9553 ha            1 L1         0.144000
      36 H14         18.7432    -3.1935   -24.1365 hn            1 L1         0.337700
      37 H15         16.1087    -2.4678   -26.6401 hn            1 L1         0.330200
      38 H16         17.2460    -4.4342   -28.8967 h1            1 L1         0.082700
      39 H17         16.8975    -2.7168   -28.7111 h1            1 L1         0.082700
      40 H18         18.4206    -3.3356   -29.4736 h1            1 L1         0.082700
      41 H19         19.9677    -0.8339   -25.2137 ha            1 L1         0.127000
      42 H20         23.4057     1.8920   -26.6398 ha            1 L1         0.132000
      43 H22         16.3933    -2.4190   -24.9478 hn            1 L1         0.330200
      44 C1          19.7929     6.0235   -24.6613 c3            1 L1         0.109700
      45 O1          20.9842     5.4528   -25.2379 os            1 L1        -0.319900
      46 H1          18.8932     5.4182   -24.8273 h1            1 L1         0.052700
      47 H2          19.9386     6.1997   -23.5884 h1            1 L1         0.052700
      48 H3          19.6457     6.9581   -25.2164 h1            1 L1         0.052700
      49 H4          19.5459     3.5177   -23.9199 ha            1 L1         0.153000
      50 H21         22.9419     4.3249   -26.3869 ha            1 L1         0.153000
@<TRIPOS>BOND
       1       25       26 1
       2       22       23 1
       3       20       21 1
       4       20       22 1
       5       18       19 1
       6       18       20 1
       7       17       18 1
       8       15       16 1
       9       14       15 1
      10       13       14 1
      11       12       13 1
      12       11       12 1
      13       11       16 1
      14       10       11 1
      15       10       17 1
      16       10       22 1
      17        9       10 1
      18        9       24 1
      19        8        9 1
      20        7        8 1
      21        6        7 1
      22        5        6 1
      23        5       24 1
      24        4        5 1
      25        4       25 1
      26        3        4 1
      27        2        3 1
      28        1        2 1
      29        1       26 1
      30       45        1 1
      31       44       45 1
      32       26       50 1
      33       25       42 1
      34       24       41 1
      35       21       38 1
      36       21       39 1
      37       21       40 1
      38       19       37 1
      39       19       43 1
      40       17       36 1
      41       16       35 1
      42       15       34 1
      43       14       33 1
      44       13       32 1
      45       12       31 1
      46        8       30 1
      47        7       29 1
      48        6       28 1
      49        3       27 1
      50        2       49 1
      51       44       46 1
      52       44       47 1
      53       44       48 1
@<TRIPOS>SUBSTRUCTURE
       1 L1              1 RESIDUE    0 **** ROOT      0
