@<TRIPOS>MOLECULE
R1
45 48 1 0 1
SMALL
USER_CHARGES
@<TRIPOS>CRYSIN
   74.6957    74.6957    74.6957   109.4712   109.4712   109.4712  1  1
@<TRIPOS>ATOM
       1 C17         21.2315     4.0954   -25.1572 ca            1 R1         0.384200
       2 C18         20.4060     3.1610   -24.4789 ca            1 R1         0.015600
       3 C19         20.6381     1.7978   -24.6113 ca            1 R1        -0.129000
       4 C15         21.6470     1.2930   -25.4762 cp            1 R1        -0.149300
       5 C14         21.9396    -0.2195   -25.6158 cp            1 R1        -0.024000
       6 C13         23.2785    -0.7019   -25.7899 ca            1 R1        -0.085000
       7 C12         23.6135    -2.0738   -25.8598 ca            1 R1        -0.112000
       8 C11         22.6106    -2.9858   -25.7664 ca            1 R1        -0.096000
       9 C10         21.2818    -2.6037   -25.5811 ca            1 R1        -0.132300
      10 C3          20.1730    -3.6182   -25.6528 c3            1 R1         0.123300
      11 C4          20.5863    -4.7965   -24.7578 ca            1 R1        -0.154300
      12 C9          20.8306    -6.0832   -25.3491 ca            1 R1        -0.104500
      13 C8          21.3479    -7.1673   -24.5845 ca            1 R1        -0.117500
      14 C7          21.8698    -6.9114   -23.3258 ca            1 R1        -0.087000
      15 C6          21.7225    -5.6458   -22.6593 ca            1 R1        -0.117500
      16 C5          21.1173    -4.5909   -23.3583 ca            1 R1        -0.104500
      17 N3          18.8868    -3.1464   -25.1371 nu            1 R1        -0.370200
      18 C2          17.9089    -3.1769   -26.0617 cz            1 R1         0.442600
      19 N2          16.7675    -2.5598   -25.8775 nv            1 R1        -0.468200
      20 N1          18.4112    -3.5545   -27.3519 n             1 R1        -0.401400
      21 C1          17.6988    -3.4641   -28.6576 c3            1 R1         0.057300
      22 C21         19.7662    -3.8839   -27.1573 c             1 R1         0.707500
      23 O1          20.4613    -4.2311   -28.0562 o             1 R1        -0.474500
      24 C20         20.9511    -1.1945   -25.5004 ca            1 R1        -0.103000
      25 C16         22.5936     2.2232   -25.9993 ca            1 R1         0.398200
      26 N4          22.3388     3.5705   -25.8905 nb            1 R1        -0.626000
      27 H16         19.9454     1.2413   -23.9868 ha            1 R1         0.148000
      28 H13         24.0997     0.0083   -25.7653 ha            1 R1         0.159000
      29 H12         24.6517    -2.3534   -26.0130 ha            1 R1         0.160000
      30 H11         22.8785    -4.0278   -25.9146 ha            1 R1         0.161000
      31 H10         20.5247    -6.3535   -26.3555 ha            1 R1         0.140500
      32 H9          21.4524    -8.1289   -25.0782 ha            1 R1         0.157000
      33 H8          22.4321    -7.7307   -22.8876 ha            1 R1         0.158000
      34 H7          22.0445    -5.4505   -21.6407 ha            1 R1         0.157000
      35 H6          21.1952    -3.5855   -22.9553 ha            1 R1         0.140500
      36 H5          18.7432    -3.1935   -24.1365 hn            1 R1         0.335700
      37 H18         16.1087    -2.4678   -26.6401 hn            1 R1         0.332200
      38 H3          17.2460    -4.4342   -28.8967 h1            1 R1         0.084700
      39 H1          16.8975    -2.7168   -28.7111 h1            1 R1         0.084700
      40 H2          18.4206    -3.3356   -29.4736 h1            1 R1         0.084700
      41 H17         19.9677    -0.8339   -25.2137 ha            1 R1         0.130000
      42 H14         23.4057     1.8920   -26.6398 h4            1 R1         0.035100
      43 H4          16.3933    -2.4190   -24.9478 hn            1 R1         0.332200
      44 F1          18.8432     3.6626   -25.4877 f             1 R1        -0.120900
      45 H15         20.7176     4.8277   -27.0633 h4            1 R1         0.052100
@<TRIPOS>BOND
       1       22       23 1
       2        2       44 1
       3        2        3 1
       4        1        2 1
       5       26        1 1
       6       25       26 1
       7        4       25 1
       8        4        3 1
       9        5        4 1
      10        5       24 1
      11        6        5 1
      12        7        6 1
      13        8        7 1
      14        9        8 1
      15        9       24 1
      16       13       12 1
      17       14       13 1
      18       15       14 1
      19       16       15 1
      20       11       16 1
      21       11       12 1
      22       10       11 1
      23       10        9 1
      24       10       22 1
      25       17       10 1
      26       18       19 1
      27       18       17 1
      28       20       18 1
      29       20       22 1
      30       21       20 1
      31       24       41 1
      32        3       27 1
      33        1       45 1
      34       25       42 1
      35        6       28 1
      36        7       29 1
      37        8       30 1
      38       12       31 1
      39       13       32 1
      40       14       33 1
      41       15       34 1
      42       16       35 1
      43       17       36 1
      44       19       43 1
      45       19       37 1
      46       21       39 1
      47       21       40 1
      48       21       38 1
@<TRIPOS>SUBSTRUCTURE
       1 R1              1 RESIDUE    0 **** ROOT      0
