@<TRIPOS>MOLECULE
L1
   45    48     1     0     0
SMALL
No Charge or Current Charge


@<TRIPOS>ATOM
      1 C1          11.7080    -2.3340     1.2790 C.3        1 L1        0.057300
      2 N1          13.0270    -2.6810     0.7330 N.am       1 L1       -0.401400
      3 C2          14.1990    -2.6480     1.3820 C.cat      1 L1        0.442600
      4 N2          14.3800    -2.3630     2.6740 N.3        1 L1       -0.468200
      5 N3          15.2170    -2.9460     0.5770 N.3        1 L1       -0.370200
      6 C3          14.7860    -3.2920    -0.7800 C.3        1 L1        0.123300
      7 C4          15.1320    -4.7730    -1.0530 C.ar       1 L1       -0.154300
      8 C5          16.3610    -5.2810    -0.5800 C.ar       1 L1       -0.104500
      9 C6          16.7390    -6.6180    -0.7850 C.ar       1 L1       -0.117500
     10 C7          15.8670    -7.4920    -1.4440 C.ar       1 L1       -0.087000
     11 C8          14.6400    -7.0150    -1.9350 C.ar       1 L1       -0.117500
     12 C9          14.2820    -5.6630    -1.7530 C.ar       1 L1       -0.104500
     13 C10         15.3660    -2.2950    -1.7990 C.ar       1 L1       -0.132300
     14 C11         15.9430    -2.7230    -3.0180 C.ar       1 L1       -0.096000
     15 C12         16.4290    -1.7760    -3.9350 C.ar       1 L1       -0.112000
     16 C13         16.3310    -0.4020    -3.6590 C.ar       1 L1       -0.085000
     17 C14         15.7810     0.0630    -2.4470 C.ar       1 L1       -0.024000
     18 C15         15.6530     1.5120    -2.1630 C.ar       1 L1       -0.149300
     19 C16         15.5220     2.4730    -3.1920 C.ar       1 L1        0.398200
     20 N4          15.3350     3.7920    -2.9800 N.ar       1 L1       -0.626000
     21 C17         15.2790     4.2300    -1.7080 C.ar       1 L1        0.384200
     22 C18         15.4380     3.3820    -0.6010 C.ar       1 L1        0.015600
     23 F1          15.3970     3.8650     0.6640 F          1 L1       -0.120900
     24 C19         15.6330     2.0130    -0.8430 C.ar       1 L1       -0.129000
     25 C20         15.3160    -0.9040    -1.5260 C.ar       1 L1       -0.103000
     26 C21         13.2670    -3.0500    -0.6250 C.2        1 L1        0.707500
     27 O1          12.3850    -3.1140    -1.4900 O.2        1 L1       -0.474500
     28 H1          11.6550    -2.5580     2.3440 H          1 L1        0.084700
     29 H2          11.5250    -1.2690     1.1370 H          1 L1        0.084700
     30 H3          10.9130    -2.8850     0.7780 H          1 L1        0.084700
     31 H4          15.3270    -2.3640     3.0580 H          1 L1        0.332200
     32 H5          16.1980    -2.9380     0.8560 H          1 L1        0.335700
     33 H6          17.0280    -4.6430    -0.0290 H          1 L1        0.140500
     34 H7          17.6890    -6.9710    -0.4080 H          1 L1        0.157000
     35 H8          16.1440    -8.5260    -1.5530 H          1 L1        0.158000
     36 H9          13.9720    -7.6890    -2.4490 H          1 L1        0.157000
     37 H10         13.3370    -5.3350    -2.1500 H          1 L1        0.140500
     38 H11         16.0200    -3.7710    -3.2730 H          1 L1        0.161000
     39 H12         16.8710    -2.0940    -4.8680 H          1 L1        0.160000
     40 H13         16.6870     0.2930    -4.4030 H          1 L1        0.159000
     41 H14         15.5280     2.1750    -4.2290 H          1 L1        0.035100
     42 H15         15.1000     5.2850    -1.5670 H          1 L1        0.052100
     43 H16         15.7730     1.3510    -0.0060 H          1 L1        0.148000
     44 H17         14.8710    -0.5690    -0.6010 H          1 L1        0.130000
     45 H18         13.6420    -2.0670     3.3100 H          1 L1        0.332200
@<TRIPOS>BOND
     1     1     2 1   
     2     1    28 1   
     3     1    29 1   
     4     1    30 1   
     5     2     3 2   
     6     2    26 am  
     7     3     4 1   
     8     3     5 1   
     9     4    31 1   
    10     4    45 1   
    11     5     6 1   
    12     5    32 1   
    13     6     7 1   
    14     6    13 1   
    15     6    26 1   
    16     7     8 ar  
    17     7    12 ar  
    18     8     9 ar  
    19     8    33 1   
    20     9    10 ar  
    21     9    34 1   
    22    10    11 ar  
    23    10    35 1   
    24    11    12 ar  
    25    11    36 1   
    26    12    37 1   
    27    13    14 ar  
    28    13    25 ar  
    29    14    15 ar  
    30    14    38 1   
    31    15    16 ar  
    32    15    39 1   
    33    16    17 ar  
    34    16    40 1   
    35    17    18 1   
    36    17    25 ar  
    37    18    19 ar  
    38    18    24 ar  
    39    19    20 ar  
    40    19    41 1   
    41    20    21 ar  
    42    21    22 ar  
    43    21    42 1   
    44    22    23 1   
    45    22    24 ar  
    46    24    43 1   
    47    25    44 1   
    48    26    27 2   
@<TRIPOS>SUBSTRUCTURE
     1 L1          1 TEMP              0 ****  ****    0 ROOT
