@<TRIPOS>MOLECULE
L1
   48    51     1     0     0
SMALL
No Charge or Current Charge


@<TRIPOS>ATOM
      1 C1          15.2090     4.1240     0.7010 C.3        1 L1       -0.055800
      2 C2          15.3090     3.5220    -0.6860 C.ar       1 L1       -0.184600
      3 C3          15.1280     4.3250    -1.8220 C.ar       1 L1        0.409200
      4 N1          15.2150     3.8470    -3.0720 N.ar       1 L1       -0.647000
      5 C4          15.4530     2.5310    -3.2370 C.ar       1 L1        0.408200
      6 C5          15.6150     1.6090    -2.1790 C.ar       1 L1       -0.177300
      7 C6          15.7870     0.1570    -2.4350 C.ar       1 L1       -0.015000
      8 C7          16.3710    -0.3090    -3.6320 C.ar       1 L1       -0.088000
      9 C8          16.5070    -1.6830    -3.8950 C.ar       1 L1       -0.112000
     10 C9          16.0170    -2.6320    -2.9820 C.ar       1 L1       -0.101000
     11 C10         15.4020    -2.2060    -1.7810 C.ar       1 L1       -0.133300
     12 C11         14.8030    -3.2090    -0.7800 C.3        1 L1        0.127300
     13 C12         15.1320    -4.6950    -1.0610 C.ar       1 L1       -0.152300
     14 C13         14.2710    -5.5710    -1.7660 C.ar       1 L1       -0.103500
     15 C14         14.6070    -6.9270    -1.9480 C.ar       1 L1       -0.119000
     16 C15         15.8240    -7.4280    -1.4570 C.ar       1 L1       -0.087000
     17 C16         16.7060    -6.5690    -0.7890 C.ar       1 L1       -0.119000
     18 C17         16.3490    -5.2260    -0.5820 C.ar       1 L1       -0.103500
     19 N2          15.2230    -2.8830     0.5830 N.3        1 L1       -0.389100
     20 C18         14.1990    -2.6020     1.3850 C.cat      1 L1        0.467400
     21 N3          14.3720    -2.3500     2.6840 N.3        1 L1       -0.471200
     22 N4          13.0320    -2.6160     0.7250 N.am       1 L1       -0.409300
     23 C19         11.7080    -2.2820     1.2640 C.3        1 L1        0.057300
     24 C20         13.2840    -2.9560    -0.6370 C.2        1 L1        0.707500
     25 O1          12.4100    -2.9970    -1.5120 O.2        1 L1       -0.475500
     26 C21         15.3260    -0.8130    -1.5150 C.ar       1 L1       -0.108000
     27 C22         15.5650     2.1500    -0.8760 C.ar       1 L1       -0.089000
     28 H1          16.0320     3.7900     1.3330 H          1 L1        0.053367
     29 H2          15.2300     5.2140     0.6620 H          1 L1        0.053367
     30 H3          14.2700     3.8300     1.1670 H          1 L1        0.053367
     31 H4          14.9150     5.3800    -1.7270 H          1 L1        0.036100
     32 H5          15.4710     2.2000    -4.2640 H          1 L1        0.029100
     33 H6          16.7220     0.3880    -4.3750 H          1 L1        0.159000
     34 H7          16.9760    -2.0020    -4.8150 H          1 L1        0.158000
     35 H8          16.1170    -3.6800    -3.2290 H          1 L1        0.160000
     36 H9          13.3310    -5.2290    -2.1610 H          1 L1        0.141000
     37 H10         13.9280    -7.5910    -2.4620 H          1 L1        0.156000
     38 H11         16.0820    -8.4660    -1.5750 H          1 L1        0.157000
     39 H12         17.6490    -6.9380    -0.4110 H          1 L1        0.156000
     40 H13         17.0230    -4.6020    -0.0250 H          1 L1        0.141000
     41 H14         16.2020    -2.8880     0.8700 H          1 L1        0.337700
     42 H15         13.6300    -2.0610     3.3200 H          1 L1        0.331200
     43 H16         10.9230    -2.8520     0.7660 H          1 L1        0.083700
     44 H17         11.6540    -2.4940     2.3310 H          1 L1        0.083700
     45 H18         11.5090    -1.2230     1.1070 H          1 L1        0.083700
     46 H19         14.8550    -0.4760    -0.6030 H          1 L1        0.128000
     47 H20         15.7150     1.5140    -0.0200 H          1 L1        0.132000
     48 H21         15.3160    -2.3600     3.0740 H          1 L1        0.331200
@<TRIPOS>BOND
     1     1     2 1   
     2     1    28 1   
     3     1    29 1   
     4     1    30 1   
     5     2     3 ar  
     6     2    27 ar  
     7     3     4 ar  
     8     3    31 1   
     9     4     5 ar  
    10     5     6 ar  
    11     5    32 1   
    12     6     7 1   
    13     6    27 ar  
    14     7     8 ar  
    15     7    26 ar  
    16     8     9 ar  
    17     8    33 1   
    18     9    10 ar  
    19     9    34 1   
    20    10    11 ar  
    21    10    35 1   
    22    11    12 1   
    23    11    26 ar  
    24    12    13 1   
    25    12    19 1   
    26    12    24 1   
    27    13    14 ar  
    28    13    18 ar  
    29    14    15 ar  
    30    14    36 1   
    31    15    16 ar  
    32    15    37 1   
    33    16    17 ar  
    34    16    38 1   
    35    17    18 ar  
    36    17    39 1   
    37    18    40 1   
    38    19    20 2   
    39    19    41 1   
    40    20    21 1   
    41    20    22 1   
    42    21    42 1   
    43    21    48 1   
    44    22    23 1   
    45    22    24 am  
    46    23    43 1   
    47    23    44 1   
    48    23    45 1   
    49    24    25 2   
    50    26    46 1   
    51    27    47 1   
@<TRIPOS>SUBSTRUCTURE
     1 L1          1 TEMP              0 ****  ****    0 ROOT
