@<TRIPOS>MOLECULE
L1
   43    46     1     0     0
SMALL
No Charge or Current Charge


@<TRIPOS>ATOM
      1 C1          11.7270    -2.5840     1.3290 C.3        1 L1        0.057300
      2 N1          13.0530    -2.6450     0.7060 N.am       1 L1       -0.403400
      3 C2          14.2320    -2.5930     1.3460 C.cat      1 L1        0.444600
      4 N2          14.4070    -2.4120     2.6580 N.3        1 L1       -0.472200
      5 N3          15.2570    -2.7750     0.5130 N.3        1 L1       -0.376200
      6 C3          14.8120    -3.0760    -0.8430 C.3        1 L1        0.108000
      7 C4          15.3590    -2.0160    -1.8430 C.ar       1 L1       -0.141300
      8 C5          16.0200    -2.3190    -3.0600 C.ar       1 L1       -0.123000
      9 C6          16.4380    -1.2950    -3.9240 C.ar       1 L1       -0.114000
     10 C7          16.1810     0.0500    -3.6160 C.ar       1 L1       -0.086000
     11 C8          15.5430     0.4050    -2.4120 C.ar       1 L1       -0.011000
     12 C9          15.2160     1.8210    -2.1140 C.ar       1 L1       -0.047000
     13 C10         15.3570     2.3660    -0.8160 C.ar       1 L1       -0.113000
     14 C11         14.9850     3.7010    -0.5360 C.ar       1 L1        0.026400
     15 Cl1         15.1550     4.3440     1.0550 Cl         1 L1       -0.060900
     16 C12         14.4610     4.5130    -1.5550 C.ar       1 L1       -0.102000
     17 C13         14.3210     3.9930    -2.8520 C.ar       1 L1        0.026400
     18 Cl2         13.6520     4.9770    -4.0970 Cl         1 L1       -0.060900
     19 C14         14.7050     2.6650    -3.1280 C.ar       1 L1       -0.113000
     20 C15         15.1680    -0.6370    -1.5330 C.ar       1 L1       -0.106000
     21 C16         15.0320    -4.5980    -1.0300 C.3        1 L1       -0.181700
     22 C17         14.8680    -5.3410    -2.3310 C.3        1 L1       -0.094900
     23 C18         16.2130    -5.2990    -1.6570 C.3        1 L1       -0.094900
     24 C19         13.2930    -2.8880    -0.6770 C.2        1 L1        0.704500
     25 O1          12.4120    -2.9820    -1.5380 O.2        1 L1       -0.473500
     26 H1          11.4700    -3.5570     1.7450 H          1 L1        0.084033
     27 H2          11.7370    -1.8710     2.1440 H          1 L1        0.084033
     28 H3          10.9530    -2.2890     0.6210 H          1 L1        0.084033
     29 H4          13.6640    -2.1510     3.3040 H          1 L1        0.331700
     30 H5          16.2400    -2.7840     0.7870 H          1 L1        0.338700
     31 H6          16.2290    -3.3150    -3.3990 H          1 L1        0.125000
     32 H7          16.9460    -1.5530    -4.8430 H          1 L1        0.156000
     33 H8          16.4790     0.8090    -4.3260 H          1 L1        0.162000
     34 H9          15.7510     1.7580    -0.0170 H          1 L1        0.150000
     35 H10         14.1590     5.5300    -1.3430 H          1 L1        0.174000
     36 H11         14.5640     2.2800    -4.1280 H          1 L1        0.150000
     37 H12         14.6630    -0.3620    -0.6210 H          1 L1        0.163000
     38 H13         14.6220    -5.1530    -0.1850 H          1 L1        0.099700
     39 H14         14.3020    -6.2720    -2.3060 H          1 L1        0.093950
     40 H15         14.7450    -4.7530    -3.2260 H          1 L1        0.093950
     41 H16         16.9720    -4.7220    -2.1490 H          1 L1        0.093950
     42 H17         16.5740    -6.2030    -1.1700 H          1 L1        0.093950
     43 H18         15.3570    -2.4020     3.0360 H          1 L1        0.331700
@<TRIPOS>BOND
     1     1     2 1   
     2     1    26 1   
     3     1    27 1   
     4     1    28 1   
     5     2     3 2   
     6     2    24 am  
     7     3     4 1   
     8     3     5 1   
     9     4    29 1   
    10     4    43 1   
    11     5     6 1   
    12     5    30 1   
    13     6     7 1   
    14     6    21 1   
    15     6    24 1   
    16     7     8 ar  
    17     7    20 ar  
    18     8     9 ar  
    19     8    31 1   
    20     9    10 ar  
    21     9    32 1   
    22    10    11 ar  
    23    10    33 1   
    24    11    12 1   
    25    11    20 ar  
    26    12    13 ar  
    27    12    19 ar  
    28    13    14 ar  
    29    13    34 1   
    30    14    15 1   
    31    14    16 ar  
    32    16    17 ar  
    33    16    35 1   
    34    17    18 1   
    35    17    19 ar  
    36    19    36 1   
    37    20    37 1   
    38    21    22 1   
    39    21    23 1   
    40    21    38 1   
    41    22    23 1   
    42    22    39 1   
    43    22    40 1   
    44    23    41 1   
    45    23    42 1   
    46    24    25 2   
@<TRIPOS>SUBSTRUCTURE
     1 L1          1 TEMP              0 ****  ****    0 ROOT
