@<TRIPOS>MOLECULE
R1
46 49 1 0 1
SMALL
USER_CHARGES
@<TRIPOS>CRYSIN
   74.6053    74.6053    74.6053   109.4712   109.4712   109.4712  1  1
@<TRIPOS>ATOM
       1 C1          17.8798    -2.0707   -29.3738 c3            1 R1         0.058300
       2 N1          18.6717    -2.1612   -28.1922 n             1 R1        -0.404400
       3 C2          18.1476    -2.3064   -26.8829 cz            1 R1         0.448600
       4 N2          16.8583    -2.2181   -26.5685 nv            1 R1        -0.475200
       5 N3          19.1984    -2.2693   -26.0239 nu            1 R1        -0.379200
       6 C3          20.4881    -1.9722   -26.6071 c3            1 R1         0.116000
       7 C4          21.1821    -0.7052   -26.0109 ca            1 R1        -0.139300
       8 C5          22.2251    -0.8079   -25.0855 ca            1 R1        -0.122000
       9 C6          22.8575     0.3813   -24.6610 ca            1 R1        -0.116000
      10 C7          22.2752     1.6555   -24.8902 ca            1 R1        -0.089000
      11 C8          21.1552     1.7575   -25.7148 cp            1 R1        -0.007000
      12 C9          20.5233     3.0624   -25.9924 cp            1 R1        -0.059000
      13 C10         21.3478     3.9617   -26.7198 ca            1 R1        -0.110000
      14 C11         20.7974     5.0931   -27.2737 ca            1 R1        -0.114000
      15 C12         19.4389     5.3715   -27.1938 ca            1 R1        -0.103000
      16 C13         18.5961     4.5951   -26.3216 ca            1 R1         0.017400
      17 Cl1         16.8372     4.9400   -26.2022 cl            1 R1        -0.074400
      18 C14         19.1689     3.3778   -25.8127 ca            1 R1        -0.112000
      19 C15         20.7277     0.6176   -26.4128 ca            1 R1        -0.110000
      20 C16         21.3478    -3.2532   -26.3933 cx            1 R1        -0.166000
      21 C18         21.2673    -4.1989   -25.2233 cx            1 R1        -0.093400
      22 C19         20.7579    -4.6682   -26.5339 cx            1 R1        -0.093400
      23 C20         19.9929    -1.8359   -28.0496 c             1 R1         0.708500
      24 O1          20.6410    -1.4257   -28.9743 o             1 R1        -0.477500
      25 H3          17.1045    -2.8396   -29.4791 h1            1 R1         0.083033
      26 H1          17.3298    -1.1221   -29.4081 h1            1 R1         0.083033
      27 H2          18.5459    -2.0440   -30.2450 h1            1 R1         0.083033
      28 H4          16.1326    -2.1201   -27.2669 hn            1 R1         0.331200
      29 H5          19.0476    -2.3163   -25.0243 hn            1 R1         0.340700
      30 H6          22.6682    -1.7780   -24.8808 ha            1 R1         0.123000
      31 H7          23.7218     0.3642   -24.0037 ha            1 R1         0.154000
      32 H8          22.7506     2.4934   -24.3889 ha            1 R1         0.160000
      33 H9          22.3815     3.6534   -26.8460 ha            1 R1         0.141000
      34 H10         21.2958     5.7333   -27.9956 ha            1 R1         0.151000
      35 H11         18.9403     6.1238   -27.7979 ha            1 R1         0.161000
      36 H12         18.5678     2.5890   -25.3699 ha            1 R1         0.142000
      37 H13         19.9622     0.7142   -27.1770 ha            1 R1         0.164000
      38 H17         22.2273    -4.5872   -24.8930 hc            1 R1         0.093450
      39 H18         20.5729    -3.9308   -24.4311 hc            1 R1         0.093450
      40 H19         19.6904    -4.7713   -26.7111 hc            1 R1         0.093450
      41 H20         21.4230    -5.3712   -27.0289 hc            1 R1         0.093450
      42 H21         16.5471    -2.0332   -25.6235 hn            1 R1         0.331200
      43 C17         19.8751    -4.6014   -27.3765 c3            1 R1        -0.077100
      44 H14         20.2301    -5.6193   -27.1735 hc            1 R1         0.051367
      45 H15         18.8085    -4.6794   -27.1318 hc            1 R1         0.051367
      46 H16         19.9180    -4.4191   -28.4574 hc            1 R1         0.051367
@<TRIPOS>BOND
       1       23       24 1
       2       21       22 1
       3       20       43 1
       4       20       21 1
       5       20       22 1
       6       16       17 1
       7       16       18 1
       8       15       16 1
       9       14       15 1
      10       13       14 1
      11       12       13 1
      12       12       18 1
      13       11       12 1
      14       11       19 1
      15       10       11 1
      16        9       10 1
      17        8        9 1
      18        7        8 1
      19        7       19 1
      20        6        7 1
      21        6       20 1
      22        6       23 1
      23        5        6 1
      24        3        4 1
      25        3        5 1
      26        2        3 1
      27        2       23 1
      28        1        2 1
      29       22       40 1
      30       22       41 1
      31       21       38 1
      32       21       39 1
      33       43       44 1
      34       43       45 1
      35       43       46 1
      36       19       37 1
      37       18       36 1
      38       15       35 1
      39       14       34 1
      40       13       33 1
      41       10       32 1
      42        9       31 1
      43        8       30 1
      44        5       29 1
      45        4       28 1
      46        4       42 1
      47        1       26 1
      48        1       27 1
      49        1       25 1
@<TRIPOS>SUBSTRUCTURE
       1 R1              1 RESIDUE    0 **** ROOT      0
